entry: 2147483648
Global frequency set at 1000000000000 ticks per second
      0: global: BTB: Creating BTB object.
entry: 2147483648
0x561e55f6a420
arch == Riscv64
      0: Creating MemDepUnit 0 object.
      0: global: StoreSet: Creating store set object.
      0: global: StoreSet: SSIT size: 1024, LFST size: 1024.
      0: Creating MemDepUnit 1 object.
      0: global: StoreSet: Creating store set object.
      0: global: StoreSet: SSIT size: 1024, LFST size: 1024.
      0: Creating MemDepUnit 2 object.
      0: global: StoreSet: Creating store set object.
      0: global: StoreSet: SSIT size: 1024, LFST size: 1024.
      0: Creating MemDepUnit 3 object.
      0: global: StoreSet: Creating store set object.
      0: global: StoreSet: SSIT size: 1024, LFST size: 1024.
      0: system.cpu.iq: IQ sharing policy set to Partitioned:64 entries per thread.
      0: system.cpu.iew.lsq: LSQ sharing policy set to Partitioned: 32 entries per LQ | 32 entries per SQ
      0: system.cpu.iew.lsq.thread0: Creating LSQUnit0 object.
      0: system.cpu.freelist: Creating new free list object.
      0: system.cpu.rob: ROB sharing policy set to Partitioned
      0: system.cpu: Creating O3CPU object.
      0: system.cpu: Workload[0] process is 0      0: global: Calling activate on Thread Context 0
      0: system.cpu: [tid:0] Calling activate thread.
      0: system.cpu: [tid:0] Adding to active threads list
      0: system.cpu: Activity: 1
      0: system.cpu.fetch: Waking up from quiesce
done CPU::activateContext
done ThreadContext::activate()
      0: system.cpu.commit: Generating TC squash event for [tid:0]
      0: system.cpu.fetch: Activating stage.
      0: system.cpu: Activity: 2
      0: system.cpu.iew.lsq.thread0: LQ size: 32, #loads occupied: 0
      0: system.cpu.iew.lsq.thread0: SQ size: 32, #stores occupied: 0
      0: system.cpu: Activity: 3
      0: system.cpu.iew.lsq.thread0: LQ size: 32, #loads occupied: 0
      0: system.cpu.iew.lsq.thread0: SQ size: 32, #stores occupied: 0
      0: system.cpu.rob: Setting active threads list pointer.
      0: system.cpu: Activity: 4
gem5 Simulator System.  http://gem5.org
gem5 is copyrighted software; use the --copyright option for details.

gem5 version 21.2.1.0
gem5 compiled May 28 2022 14:02:51
gem5 started Jun  2 2022 17:41:15
gem5 executing on instance-1, pid 12578
command line: build/STRAIGHT/gem5.opt --debug-flags=O3CPUAll configs/learning_gem5/part1/simple.py

Beginning simulation!
      0: system.cpu: 

O3CPU: Ticking main, O3CPU.
stalls[tid].decode: 0
      0: system.cpu.fetch: Running stage.
      0: system.cpu.fetch: Attempting to fetch from [tid:0]
this_pc: 0x80000000
this_rp: 0
      0: system.cpu.fetch: [tid:0] Attempting to translate and read instruction, starting at PC (0x80000000=>0x80000008).(0=>1).
      0: system.cpu.fetch: [tid:0] Fetching cache line 0x80000000 for addr 0x80000000
      0: system.cpu: CPU already running.
      0: system.cpu.fetch: Fetch: Doing instruction read.
      0: system.cpu.fetch: [tid:0] Doing Icache access.
      0: system.cpu.fetch: [tid:0] Activity: Waiting on I-cache response.
      0: system.cpu.fetch: Deactivating stage.
      0: system.cpu: Activity: 3
Record number of instructions fetched: 0
AFTER updateFetchStatus()
AFTER pipelineIcacheAccesses()
ENTER THE LOOP OF ACTIVE THREADS
fetchQueue[tid].size(): 
AFTER ADDING AVAILABLE INSTS TO FETCHQUEUE
available_insts: 0
      0: system.cpu.decode: Processing [tid:0]
      0: system.cpu.decode: [tid:0] Not blocked, so attempting to run stage.
      0: system.cpu.decode: [tid:0] Nothing to do, breaking out early.
Rename::sortInsts() insts_from_decode: 
      0: system.cpu.rename: Processing [tid:0]
      0: system.cpu.rename: [tid:0] Free IQ: 64, Free ROB: 192, Free LQ: 32, Free SQ: 32, FreeRM 1(1 224 255 510 31 0)
      0: system.cpu.rename: [tid:0] 0 instructions not yet in ROB
      0: system.cpu.rename: calcFreeLQEntries: free lqEntries: 32, loadsInProgress: 0, loads dispatchedToLQ: 0
      0: system.cpu.rename: [tid:0] Not blocked, so attempting to run stage.
      0: system.cpu.rename: [tid:0] Nothing to do, breaking out early.
IEW::sortInsts() insts_from_rename: 0
      0: system.cpu.iew: Issue: Processing [tid:0]
      0: system.cpu.iew: [tid:0] Not blocked, so attempting to run dispatch.
executeInsts()
Available Instructions: 
insts_to_execute 0
      0: system.cpu.iq: Attempting to schedule ready instructions from the IQ.
      0: system.cpu.iq: Not able to schedule any instructions.
      0: system.cpu.iew: Processing [tid:0]
      0: system.cpu.iew.lsq.thread0: LQ size: 32, #loads occupied: 0
      0: system.cpu.iew.lsq.thread0: SQ size: 32, #stores occupied: 0
      0: system.cpu.iew: [tid:0], Dispatch dispatched 0 instructions.
      0: system.cpu.iew.lsq.thread0: SQ size: 32, #stores occupied: 0
      0: system.cpu.iew.lsq.thread0: LQ size: 32, #loads occupied: 0
      0: system.cpu.iew: IQ has 64 free entries (Can schedule: 0).  LQ has 32 free entries. SQ has 32 free entries.
      0: system.cpu.iew: IEW switching to idle
      0: system.cpu.iew: Deactivating stage.
      0: system.cpu: Activity: 2
      0: system.cpu.iew: Activity this cycle.
      0: system.cpu.rob: Does not need to squash due to being empty [sn:0]
      0: system.cpu.commit: Squashing from TC, restarting at PC (0x80000000=>0x80000008).(0=>1)
      0: system.cpu.commit: [tid:0] ROB has 0 insts & 192 free entries.
      0: system.cpu.commit: Activity This Cycle.
END OF commit.tick()
      0: system.cpu: Scheduling next tick!
   1000: system.cpu: 

O3CPU: Ticking main, O3CPU.
stalls[tid].decode: 0
   1000: system.cpu.fetch: Running stage.
   1000: system.cpu.fetch: There are no more threads available to fetch from.
   1000: system.cpu.fetch: [tid:0] Fetch is waiting cache response!
Record number of instructions fetched: 0
AFTER updateFetchStatus()
AFTER pipelineIcacheAccesses()
ENTER THE LOOP OF ACTIVE THREADS
fetchQueue[tid].size(): 
AFTER ADDING AVAILABLE INSTS TO FETCHQUEUE
available_insts: 0
   1000: system.cpu.decode: Processing [tid:0]
   1000: system.cpu.decode: [tid:0] Squashing instructions due to squash from commit.
   1000: system.cpu.decode: [tid:0] Squashing.
Rename::sortInsts() insts_from_decode: 
   1000: system.cpu.rename: Processing [tid:0]
   1000: system.cpu.rename: [tid:0] Free IQ: 64, Free ROB: 192, Free LQ: 32, Free SQ: 32, FreeRM 1(1 224 255 510 31 0)
   1000: system.cpu.rename: [tid:0] 0 instructions not yet in ROB
   1000: system.cpu.rename: [tid:0] Squashing instructions due to squash from commit.
   1000: system.cpu.rename: [tid:0] [squash sn:0] Squashing instructions.
IEW::sortInsts() insts_from_rename: 0
   1000: system.cpu.iew: Issue: Processing [tid:0]
   1000: system.cpu.iew: [tid:0] Squashing all instructions.
   1000: system.cpu.iq: [tid:0] Starting to squash instructions in the IQ.
   1000: system.cpu.iq: [tid:0] Squashing until sequence number 0!
   1000: global: StoreSet: Squashing until inum 0
   1000: system.cpu.iew.lsq.thread0: Squashing until [sn:0]!(Loads:0 Stores:0)
   1000: system.cpu.iew: Removing skidbuffer instructions until [sn:0] [tid:0]
   1000: system.cpu.iew: [tid:0] Removing incoming rename instructions
executeInsts()
Available Instructions: 
insts_to_execute 0
   1000: system.cpu.iq: Attempting to schedule ready instructions from the IQ.
   1000: system.cpu.iq: Not able to schedule any instructions.
   1000: system.cpu.iew: Processing [tid:0]
   1000: system.cpu.iew.lsq.thread0: LQ size: 32, #loads occupied: 0
   1000: system.cpu.iew.lsq.thread0: SQ size: 32, #stores occupied: 0
   1000: system.cpu.iew: [tid:0], Dispatch dispatched 0 instructions.
   1000: system.cpu.iew.lsq.thread0: SQ size: 32, #stores occupied: 0
   1000: system.cpu.iew.lsq.thread0: LQ size: 32, #loads occupied: 0
   1000: system.cpu.iew: IQ has 64 free entries (Can schedule: 0).  LQ has 32 free entries. SQ has 32 free entries.
   1000: system.cpu.iew: Activity this cycle.
   1000: system.cpu: Activity: 3
   1000: system.cpu.commit: Getting instructions from Rename stage.
   1000: system.cpu.commit: Trying to commit instructions in the ROB.
num_committed: 0
   1000: system.cpu.commit: [tid:0] ROB has 0 insts & 192 free entries.
   1000: system.cpu.commit: Deactivating stage.
   1000: system.cpu: Activity: 2
END OF commit.tick()
   1000: system.cpu: Scheduling next tick!
   2000: system.cpu: 

O3CPU: Ticking main, O3CPU.
stalls[tid].decode: 0
   2000: system.cpu.fetch: Running stage.
   2000: system.cpu.fetch: There are no more threads available to fetch from.
   2000: system.cpu.fetch: [tid:0] Fetch is waiting cache response!
Record number of instructions fetched: 0
AFTER updateFetchStatus()
AFTER pipelineIcacheAccesses()
ENTER THE LOOP OF ACTIVE THREADS
fetchQueue[tid].size(): 
AFTER ADDING AVAILABLE INSTS TO FETCHQUEUE
available_insts: 0
   2000: system.cpu.decode: Processing [tid:0]
   2000: system.cpu.decode: [tid:0] Done squashing, switching to running.
   2000: system.cpu.decode: [tid:0] Not blocked, so attempting to run stage.
   2000: system.cpu.decode: [tid:0] Nothing to do, breaking out early.
Rename::sortInsts() insts_from_decode: 
   2000: system.cpu.rename: Processing [tid:0]
   2000: system.cpu.rename: [tid:0] Free IQ: 64, Free ROB: 192, Free LQ: 32, Free SQ: 32, FreeRM 1(1 224 255 510 31 0)
   2000: system.cpu.rename: [tid:0] 0 instructions not yet in ROB
   2000: system.cpu.rename: calcFreeLQEntries: free lqEntries: 32, loadsInProgress: 0, loads dispatchedToLQ: 0
   2000: system.cpu.rename: [tid:0] Done squashing, switching to running.
   2000: system.cpu.rename: [tid:0] Not blocked, so attempting to run stage.
   2000: system.cpu.rename: [tid:0] Nothing to do, breaking out early.
IEW::sortInsts() insts_from_rename: 0
   2000: system.cpu.iew: Issue: Processing [tid:0]
   2000: system.cpu.iew: [tid:0] Done squashing, switching to running.
   2000: system.cpu.iew: [tid:0] Not blocked, so attempting to run dispatch.
executeInsts()
Available Instructions: 
insts_to_execute 0
   2000: system.cpu.iq: Attempting to schedule ready instructions from the IQ.
   2000: system.cpu.iq: Not able to schedule any instructions.
   2000: system.cpu.iew: Processing [tid:0]
   2000: system.cpu.iew: [tid:0], Dispatch dispatched 0 instructions.
   2000: system.cpu.iew.lsq.thread0: SQ size: 32, #stores occupied: 0
   2000: system.cpu.iew.lsq.thread0: LQ size: 32, #loads occupied: 0
   2000: system.cpu.iew: IQ has 64 free entries (Can schedule: 0).  LQ has 32 free entries. SQ has 32 free entries.
   2000: system.cpu.commit: Getting instructions from Rename stage.
   2000: system.cpu.commit: Trying to commit instructions in the ROB.
num_committed: 0
   2000: system.cpu.commit: [tid:0] ROB has 0 insts & 192 free entries.
END OF commit.tick()
   2000: system.cpu: Scheduling next tick!
   3000: system.cpu: 

O3CPU: Ticking main, O3CPU.
stalls[tid].decode: 0
   3000: system.cpu.fetch: Running stage.
   3000: system.cpu.fetch: There are no more threads available to fetch from.
   3000: system.cpu.fetch: [tid:0] Fetch is waiting cache response!
Record number of instructions fetched: 0
AFTER updateFetchStatus()
AFTER pipelineIcacheAccesses()
ENTER THE LOOP OF ACTIVE THREADS
fetchQueue[tid].size(): 
AFTER ADDING AVAILABLE INSTS TO FETCHQUEUE
available_insts: 0
   3000: system.cpu.decode: Processing [tid:0]
   3000: system.cpu.decode: [tid:0] Not blocked, so attempting to run stage.
   3000: system.cpu.decode: [tid:0] Nothing to do, breaking out early.
Rename::sortInsts() insts_from_decode: 
   3000: system.cpu.rename: Processing [tid:0]
   3000: system.cpu.rename: [tid:0] Free IQ: 64, Free ROB: 192, Free LQ: 32, Free SQ: 32, FreeRM 1(1 224 255 510 31 0)
   3000: system.cpu.rename: [tid:0] 0 instructions not yet in ROB
   3000: system.cpu.rename: calcFreeLQEntries: free lqEntries: 32, loadsInProgress: 0, loads dispatchedToLQ: 0
   3000: system.cpu.rename: [tid:0] Not blocked, so attempting to run stage.
   3000: system.cpu.rename: [tid:0] Nothing to do, breaking out early.
IEW::sortInsts() insts_from_rename: 0
   3000: system.cpu.iew: Issue: Processing [tid:0]
   3000: system.cpu.iew: [tid:0] Not blocked, so attempting to run dispatch.
executeInsts()
Available Instructions: 
insts_to_execute 0
   3000: system.cpu.iq: Attempting to schedule ready instructions from the IQ.
   3000: system.cpu.iq: Not able to schedule any instructions.
   3000: system.cpu.iew: Processing [tid:0]
   3000: system.cpu.iew: [tid:0], Dispatch dispatched 0 instructions.
   3000: system.cpu.iew.lsq.thread0: SQ size: 32, #stores occupied: 0
   3000: system.cpu.iew.lsq.thread0: LQ size: 32, #loads occupied: 0
   3000: system.cpu.iew: IQ has 64 free entries (Can schedule: 0).  LQ has 32 free entries. SQ has 32 free entries.
   3000: system.cpu.commit: Getting instructions from Rename stage.
   3000: system.cpu.commit: Trying to commit instructions in the ROB.
num_committed: 0
   3000: system.cpu.commit: [tid:0] ROB has 0 insts & 192 free entries.
END OF commit.tick()
   3000: system.cpu: Scheduling next tick!
   4000: system.cpu: 

O3CPU: Ticking main, O3CPU.
   4000: system.cpu.fetch: [tid:0] Squashing instructions due to squash from commit.
   4000: system.cpu.fetch: [tid:0] Squash from commit.
   4000: system.cpu.fetch: [tid:0] Squashing, setting PC to: (0x80000000=>0x80000008).(0=>1).
new_pc: 2147483648
new_rp: 0
   4000: system.cpu.fetch: [tid:0] Squashing outstanding Icache miss.
   4000: system.cpu: Thread 0: Deleting instructions from instruction list.
stalls[tid].decode: 0
   4000: system.cpu.fetch: Running stage.
   4000: system.cpu.fetch: There are no more threads available to fetch from.
   4000: system.cpu.fetch: [tid:0] Fetch is squashing!
Record number of instructions fetched: 0
   4000: system.cpu.fetch: [tid:0] Activating stage.
   4000: system.cpu: Activity: 3
AFTER updateFetchStatus()
AFTER pipelineIcacheAccesses()
ENTER THE LOOP OF ACTIVE THREADS
fetchQueue[tid].size(): 
AFTER ADDING AVAILABLE INSTS TO FETCHQUEUE
available_insts: 0
   4000: system.cpu.decode: Processing [tid:0]
   4000: system.cpu.decode: [tid:0] Not blocked, so attempting to run stage.
   4000: system.cpu.decode: [tid:0] Nothing to do, breaking out early.
Rename::sortInsts() insts_from_decode: 
   4000: system.cpu.rename: Processing [tid:0]
   4000: system.cpu.rename: [tid:0] Free IQ: 64, Free ROB: 192, Free LQ: 32, Free SQ: 32, FreeRM 1(1 224 255 510 31 0)
   4000: system.cpu.rename: [tid:0] 0 instructions not yet in ROB
   4000: system.cpu.rename: calcFreeLQEntries: free lqEntries: 32, loadsInProgress: 0, loads dispatchedToLQ: 0
   4000: system.cpu.rename: [tid:0] Not blocked, so attempting to run stage.
   4000: system.cpu.rename: [tid:0] Nothing to do, breaking out early.
IEW::sortInsts() insts_from_rename: 0
   4000: system.cpu.iew: Issue: Processing [tid:0]
   4000: system.cpu.iew: [tid:0] Not blocked, so attempting to run dispatch.
executeInsts()
Available Instructions: 
insts_to_execute 0
   4000: system.cpu.iq: Attempting to schedule ready instructions from the IQ.
   4000: system.cpu.iq: Not able to schedule any instructions.
   4000: system.cpu.iew: Processing [tid:0]
   4000: system.cpu.iew: [tid:0], Dispatch dispatched 0 instructions.
   4000: system.cpu.iew.lsq.thread0: SQ size: 32, #stores occupied: 0
   4000: system.cpu.iew.lsq.thread0: LQ size: 32, #loads occupied: 0
   4000: system.cpu.iew: IQ has 64 free entries (Can schedule: 0).  LQ has 32 free entries. SQ has 32 free entries.
   4000: system.cpu.commit: Getting instructions from Rename stage.
   4000: system.cpu.commit: Trying to commit instructions in the ROB.
num_committed: 0
   4000: system.cpu.commit: [tid:0] ROB has 0 insts & 192 free entries.
END OF commit.tick()
   4000: system.cpu: Scheduling next tick!
   5000: system.cpu: 

O3CPU: Ticking main, O3CPU.
   5000: system.cpu.fetch: [tid:0] Done squashing, switching to running.
stalls[tid].decode: 0
   5000: system.cpu.fetch: Running stage.
   5000: system.cpu.fetch: Attempting to fetch from [tid:0]
this_pc: 0x80000000
this_rp: 0
   5000: system.cpu.fetch: [tid:0] Attempting to translate and read instruction, starting at PC (0x80000000=>0x80000008).(0=>1).
   5000: system.cpu.fetch: [tid:0] Fetching cache line 0x80000000 for addr 0x80000000
   5000: system.cpu: CPU already running.
   5000: system.cpu.fetch: Fetch: Doing instruction read.
   5000: system.cpu.fetch: [tid:0] Doing Icache access.
   5000: system.cpu.fetch: [tid:0] Activity: Waiting on I-cache response.
   5000: system.cpu.fetch: Deactivating stage.
   5000: system.cpu: Activity: 2
Record number of instructions fetched: 0
AFTER updateFetchStatus()
AFTER pipelineIcacheAccesses()
ENTER THE LOOP OF ACTIVE THREADS
fetchQueue[tid].size(): 
AFTER ADDING AVAILABLE INSTS TO FETCHQUEUE
available_insts: 0
   5000: system.cpu.decode: Processing [tid:0]
   5000: system.cpu.decode: [tid:0] Not blocked, so attempting to run stage.
   5000: system.cpu.decode: [tid:0] Nothing to do, breaking out early.
Rename::sortInsts() insts_from_decode: 
   5000: system.cpu.rename: Processing [tid:0]
   5000: system.cpu.rename: [tid:0] Free IQ: 64, Free ROB: 192, Free LQ: 32, Free SQ: 32, FreeRM 1(1 224 255 510 31 0)
   5000: system.cpu.rename: [tid:0] 0 instructions not yet in ROB
   5000: system.cpu.rename: calcFreeLQEntries: free lqEntries: 32, loadsInProgress: 0, loads dispatchedToLQ: 0
   5000: system.cpu.rename: [tid:0] Not blocked, so attempting to run stage.
   5000: system.cpu.rename: [tid:0] Nothing to do, breaking out early.
IEW::sortInsts() insts_from_rename: 0
   5000: system.cpu.iew: Issue: Processing [tid:0]
   5000: system.cpu.iew: [tid:0] Not blocked, so attempting to run dispatch.
executeInsts()
Available Instructions: 
insts_to_execute 0
   5000: system.cpu.iq: Attempting to schedule ready instructions from the IQ.
   5000: system.cpu.iq: Not able to schedule any instructions.
   5000: system.cpu.iew: Processing [tid:0]
   5000: system.cpu.iew: [tid:0], Dispatch dispatched 0 instructions.
   5000: system.cpu.iew.lsq.thread0: SQ size: 32, #stores occupied: 0
   5000: system.cpu.iew.lsq.thread0: LQ size: 32, #loads occupied: 0
   5000: system.cpu.iew: IQ has 64 free entries (Can schedule: 0).  LQ has 32 free entries. SQ has 32 free entries.
   5000: system.cpu.commit: Getting instructions from Rename stage.
   5000: system.cpu.commit: Trying to commit instructions in the ROB.
num_committed: 0
   5000: system.cpu.commit: [tid:0] ROB has 0 insts & 192 free entries.
END OF commit.tick()
   5000: system.cpu: Scheduling next tick!
   6000: system.cpu: 

O3CPU: Ticking main, O3CPU.
stalls[tid].decode: 0
   6000: system.cpu.fetch: Running stage.
   6000: system.cpu.fetch: There are no more threads available to fetch from.
   6000: system.cpu.fetch: [tid:0] Fetch is waiting cache response!
Record number of instructions fetched: 0
AFTER updateFetchStatus()
AFTER pipelineIcacheAccesses()
ENTER THE LOOP OF ACTIVE THREADS
fetchQueue[tid].size(): 
AFTER ADDING AVAILABLE INSTS TO FETCHQUEUE
available_insts: 0
   6000: system.cpu.decode: Processing [tid:0]
   6000: system.cpu.decode: [tid:0] Not blocked, so attempting to run stage.
   6000: system.cpu.decode: [tid:0] Nothing to do, breaking out early.
Rename::sortInsts() insts_from_decode: 
   6000: system.cpu.rename: Processing [tid:0]
   6000: system.cpu.rename: [tid:0] Free IQ: 64, Free ROB: 192, Free LQ: 32, Free SQ: 32, FreeRM 1(1 224 255 510 31 0)
   6000: system.cpu.rename: [tid:0] 0 instructions not yet in ROB
   6000: system.cpu.rename: calcFreeLQEntries: free lqEntries: 32, loadsInProgress: 0, loads dispatchedToLQ: 0
   6000: system.cpu.rename: [tid:0] Not blocked, so attempting to run stage.
   6000: system.cpu.rename: [tid:0] Nothing to do, breaking out early.
IEW::sortInsts() insts_from_rename: 0
   6000: system.cpu.iew: Issue: Processing [tid:0]
   6000: system.cpu.iew: [tid:0] Not blocked, so attempting to run dispatch.
executeInsts()
Available Instructions: 
insts_to_execute 0
   6000: system.cpu.iq: Attempting to schedule ready instructions from the IQ.
   6000: system.cpu.iq: Not able to schedule any instructions.
   6000: system.cpu.iew: Processing [tid:0]
   6000: system.cpu.iew: [tid:0], Dispatch dispatched 0 instructions.
   6000: system.cpu.iew.lsq.thread0: SQ size: 32, #stores occupied: 0
   6000: system.cpu.iew.lsq.thread0: LQ size: 32, #loads occupied: 0
   6000: system.cpu.iew: IQ has 64 free entries (Can schedule: 0).  LQ has 32 free entries. SQ has 32 free entries.
   6000: system.cpu.commit: Getting instructions from Rename stage.
   6000: system.cpu.commit: Trying to commit instructions in the ROB.
num_committed: 0
   6000: system.cpu.commit: [tid:0] ROB has 0 insts & 192 free entries.
END OF commit.tick()
   6000: system.cpu: Scheduling next tick!
   7000: system.cpu: 

O3CPU: Ticking main, O3CPU.
stalls[tid].decode: 0
   7000: system.cpu.fetch: Running stage.
   7000: system.cpu.fetch: There are no more threads available to fetch from.
   7000: system.cpu.fetch: [tid:0] Fetch is waiting cache response!
Record number of instructions fetched: 0
AFTER updateFetchStatus()
AFTER pipelineIcacheAccesses()
ENTER THE LOOP OF ACTIVE THREADS
fetchQueue[tid].size(): 
AFTER ADDING AVAILABLE INSTS TO FETCHQUEUE
available_insts: 0
   7000: system.cpu.decode: Processing [tid:0]
   7000: system.cpu.decode: [tid:0] Not blocked, so attempting to run stage.
   7000: system.cpu.decode: [tid:0] Nothing to do, breaking out early.
Rename::sortInsts() insts_from_decode: 
   7000: system.cpu.rename: Processing [tid:0]
   7000: system.cpu.rename: [tid:0] Free IQ: 64, Free ROB: 192, Free LQ: 32, Free SQ: 32, FreeRM 1(1 224 255 510 31 0)
   7000: system.cpu.rename: [tid:0] 0 instructions not yet in ROB
   7000: system.cpu.rename: calcFreeLQEntries: free lqEntries: 32, loadsInProgress: 0, loads dispatchedToLQ: 0
   7000: system.cpu.rename: [tid:0] Not blocked, so attempting to run stage.
   7000: system.cpu.rename: [tid:0] Nothing to do, breaking out early.
IEW::sortInsts() insts_from_rename: 0
   7000: system.cpu.iew: Issue: Processing [tid:0]
   7000: system.cpu.iew: [tid:0] Not blocked, so attempting to run dispatch.
executeInsts()
Available Instructions: 
insts_to_execute 0
   7000: system.cpu.iq: Attempting to schedule ready instructions from the IQ.
   7000: system.cpu.iq: Not able to schedule any instructions.
   7000: system.cpu.iew: Processing [tid:0]
   7000: system.cpu.iew: [tid:0], Dispatch dispatched 0 instructions.
   7000: system.cpu.iew.lsq.thread0: SQ size: 32, #stores occupied: 0
   7000: system.cpu.iew.lsq.thread0: LQ size: 32, #loads occupied: 0
   7000: system.cpu.iew: IQ has 64 free entries (Can schedule: 0).  LQ has 32 free entries. SQ has 32 free entries.
   7000: system.cpu.commit: Getting instructions from Rename stage.
   7000: system.cpu.commit: Trying to commit instructions in the ROB.
num_committed: 0
   7000: system.cpu.commit: [tid:0] ROB has 0 insts & 192 free entries.
END OF commit.tick()
   7000: system.cpu: Scheduling next tick!
   8000: system.cpu: 

O3CPU: Ticking main, O3CPU.
stalls[tid].decode: 0
   8000: system.cpu.fetch: Running stage.
   8000: system.cpu.fetch: There are no more threads available to fetch from.
   8000: system.cpu.fetch: [tid:0] Fetch is waiting cache response!
Record number of instructions fetched: 0
AFTER updateFetchStatus()
AFTER pipelineIcacheAccesses()
ENTER THE LOOP OF ACTIVE THREADS
fetchQueue[tid].size(): 
AFTER ADDING AVAILABLE INSTS TO FETCHQUEUE
available_insts: 0
   8000: system.cpu.decode: Processing [tid:0]
   8000: system.cpu.decode: [tid:0] Not blocked, so attempting to run stage.
   8000: system.cpu.decode: [tid:0] Nothing to do, breaking out early.
Rename::sortInsts() insts_from_decode: 
   8000: system.cpu.rename: Processing [tid:0]
   8000: system.cpu.rename: [tid:0] Free IQ: 64, Free ROB: 192, Free LQ: 32, Free SQ: 32, FreeRM 1(1 224 255 510 31 0)
   8000: system.cpu.rename: [tid:0] 0 instructions not yet in ROB
   8000: system.cpu.rename: calcFreeLQEntries: free lqEntries: 32, loadsInProgress: 0, loads dispatchedToLQ: 0
   8000: system.cpu.rename: [tid:0] Not blocked, so attempting to run stage.
   8000: system.cpu.rename: [tid:0] Nothing to do, breaking out early.
IEW::sortInsts() insts_from_rename: 0
   8000: system.cpu.iew: Issue: Processing [tid:0]
   8000: system.cpu.iew: [tid:0] Not blocked, so attempting to run dispatch.
executeInsts()
Available Instructions: 
insts_to_execute 0
   8000: system.cpu.iq: Attempting to schedule ready instructions from the IQ.
   8000: system.cpu.iq: Not able to schedule any instructions.
   8000: system.cpu.iew: Processing [tid:0]
   8000: system.cpu.iew: [tid:0], Dispatch dispatched 0 instructions.
   8000: system.cpu.iew.lsq.thread0: SQ size: 32, #stores occupied: 0
   8000: system.cpu.iew.lsq.thread0: LQ size: 32, #loads occupied: 0
   8000: system.cpu.iew: IQ has 64 free entries (Can schedule: 0).  LQ has 32 free entries. SQ has 32 free entries.
   8000: system.cpu.commit: Getting instructions from Rename stage.
   8000: system.cpu.commit: Trying to commit instructions in the ROB.
num_committed: 0
   8000: system.cpu.commit: [tid:0] ROB has 0 insts & 192 free entries.
END OF commit.tick()
   8000: system.cpu: Scheduling next tick!
   9000: system.cpu: 

O3CPU: Ticking main, O3CPU.
stalls[tid].decode: 0
   9000: system.cpu.fetch: Running stage.
   9000: system.cpu.fetch: There are no more threads available to fetch from.
   9000: system.cpu.fetch: [tid:0] Fetch is waiting cache response!
Record number of instructions fetched: 0
AFTER updateFetchStatus()
AFTER pipelineIcacheAccesses()
ENTER THE LOOP OF ACTIVE THREADS
fetchQueue[tid].size(): 
AFTER ADDING AVAILABLE INSTS TO FETCHQUEUE
available_insts: 0
   9000: system.cpu.decode: Processing [tid:0]
   9000: system.cpu.decode: [tid:0] Not blocked, so attempting to run stage.
   9000: system.cpu.decode: [tid:0] Nothing to do, breaking out early.
Rename::sortInsts() insts_from_decode: 
   9000: system.cpu.rename: Processing [tid:0]
   9000: system.cpu.rename: [tid:0] Free IQ: 64, Free ROB: 192, Free LQ: 32, Free SQ: 32, FreeRM 1(1 224 255 510 31 0)
   9000: system.cpu.rename: [tid:0] 0 instructions not yet in ROB
   9000: system.cpu.rename: calcFreeLQEntries: free lqEntries: 32, loadsInProgress: 0, loads dispatchedToLQ: 0
   9000: system.cpu.rename: [tid:0] Not blocked, so attempting to run stage.
   9000: system.cpu.rename: [tid:0] Nothing to do, breaking out early.
IEW::sortInsts() insts_from_rename: 0
   9000: system.cpu.iew: Issue: Processing [tid:0]
   9000: system.cpu.iew: [tid:0] Not blocked, so attempting to run dispatch.
executeInsts()
Available Instructions: 
insts_to_execute 0
   9000: system.cpu.iq: Attempting to schedule ready instructions from the IQ.
   9000: system.cpu.iq: Not able to schedule any instructions.
   9000: system.cpu.iew: Processing [tid:0]
   9000: system.cpu.iew: [tid:0], Dispatch dispatched 0 instructions.
   9000: system.cpu.iew.lsq.thread0: SQ size: 32, #stores occupied: 0
   9000: system.cpu.iew.lsq.thread0: LQ size: 32, #loads occupied: 0
   9000: system.cpu.iew: IQ has 64 free entries (Can schedule: 0).  LQ has 32 free entries. SQ has 32 free entries.
   9000: system.cpu.commit: Getting instructions from Rename stage.
   9000: system.cpu.commit: Trying to commit instructions in the ROB.
num_committed: 0
   9000: system.cpu.commit: [tid:0] ROB has 0 insts & 192 free entries.
END OF commit.tick()
   9000: system.cpu: Scheduling next tick!
  10000: system.cpu: 

O3CPU: Ticking main, O3CPU.
stalls[tid].decode: 0
  10000: system.cpu.fetch: Running stage.
  10000: system.cpu.fetch: There are no more threads available to fetch from.
  10000: system.cpu.fetch: [tid:0] Fetch is waiting cache response!
Record number of instructions fetched: 0
AFTER updateFetchStatus()
AFTER pipelineIcacheAccesses()
ENTER THE LOOP OF ACTIVE THREADS
fetchQueue[tid].size(): 
AFTER ADDING AVAILABLE INSTS TO FETCHQUEUE
available_insts: 0
  10000: system.cpu.decode: Processing [tid:0]
  10000: system.cpu.decode: [tid:0] Not blocked, so attempting to run stage.
  10000: system.cpu.decode: [tid:0] Nothing to do, breaking out early.
Rename::sortInsts() insts_from_decode: 
  10000: system.cpu.rename: Processing [tid:0]
  10000: system.cpu.rename: [tid:0] Free IQ: 64, Free ROB: 192, Free LQ: 32, Free SQ: 32, FreeRM 1(1 224 255 510 31 0)
  10000: system.cpu.rename: [tid:0] 0 instructions not yet in ROB
  10000: system.cpu.rename: calcFreeLQEntries: free lqEntries: 32, loadsInProgress: 0, loads dispatchedToLQ: 0
  10000: system.cpu.rename: [tid:0] Not blocked, so attempting to run stage.
  10000: system.cpu.rename: [tid:0] Nothing to do, breaking out early.
IEW::sortInsts() insts_from_rename: 0
  10000: system.cpu.iew: Issue: Processing [tid:0]
  10000: system.cpu.iew: [tid:0] Not blocked, so attempting to run dispatch.
executeInsts()
Available Instructions: 
insts_to_execute 0
  10000: system.cpu.iq: Attempting to schedule ready instructions from the IQ.
  10000: system.cpu.iq: Not able to schedule any instructions.
  10000: system.cpu.iew: Processing [tid:0]
  10000: system.cpu.iew: [tid:0], Dispatch dispatched 0 instructions.
  10000: system.cpu.iew.lsq.thread0: SQ size: 32, #stores occupied: 0
  10000: system.cpu.iew.lsq.thread0: LQ size: 32, #loads occupied: 0
  10000: system.cpu.iew: IQ has 64 free entries (Can schedule: 0).  LQ has 32 free entries. SQ has 32 free entries.
  10000: system.cpu.commit: Getting instructions from Rename stage.
  10000: system.cpu.commit: Trying to commit instructions in the ROB.
num_committed: 0
  10000: system.cpu.commit: [tid:0] ROB has 0 insts & 192 free entries.
END OF commit.tick()
  10000: system.cpu: Activity: 1
  10000: system.cpu: Scheduling next tick!
  11000: system.cpu: 

O3CPU: Ticking main, O3CPU.
stalls[tid].decode: 0
  11000: system.cpu.fetch: Running stage.
  11000: system.cpu.fetch: There are no more threads available to fetch from.
  11000: system.cpu.fetch: [tid:0] Fetch is waiting cache response!
Record number of instructions fetched: 0
AFTER updateFetchStatus()
AFTER pipelineIcacheAccesses()
ENTER THE LOOP OF ACTIVE THREADS
fetchQueue[tid].size(): 
AFTER ADDING AVAILABLE INSTS TO FETCHQUEUE
available_insts: 0
  11000: system.cpu.decode: Processing [tid:0]
  11000: system.cpu.decode: [tid:0] Not blocked, so attempting to run stage.
  11000: system.cpu.decode: [tid:0] Nothing to do, breaking out early.
Rename::sortInsts() insts_from_decode: 
  11000: system.cpu.rename: Processing [tid:0]
  11000: system.cpu.rename: [tid:0] Free IQ: 64, Free ROB: 192, Free LQ: 32, Free SQ: 32, FreeRM 1(1 224 255 510 31 0)
  11000: system.cpu.rename: [tid:0] 0 instructions not yet in ROB
  11000: system.cpu.rename: calcFreeLQEntries: free lqEntries: 32, loadsInProgress: 0, loads dispatchedToLQ: 0
  11000: system.cpu.rename: [tid:0] Not blocked, so attempting to run stage.
  11000: system.cpu.rename: [tid:0] Nothing to do, breaking out early.
IEW::sortInsts() insts_from_rename: 0
  11000: system.cpu.iew: Issue: Processing [tid:0]
  11000: system.cpu.iew: [tid:0] Not blocked, so attempting to run dispatch.
executeInsts()
Available Instructions: 
insts_to_execute 0
  11000: system.cpu.iq: Attempting to schedule ready instructions from the IQ.
  11000: system.cpu.iq: Not able to schedule any instructions.
  11000: system.cpu.iew: Processing [tid:0]
  11000: system.cpu.iew: [tid:0], Dispatch dispatched 0 instructions.
  11000: system.cpu.iew.lsq.thread0: SQ size: 32, #stores occupied: 0
  11000: system.cpu.iew.lsq.thread0: LQ size: 32, #loads occupied: 0
  11000: system.cpu.iew: IQ has 64 free entries (Can schedule: 0).  LQ has 32 free entries. SQ has 32 free entries.
  11000: system.cpu.commit: Getting instructions from Rename stage.
  11000: system.cpu.commit: Trying to commit instructions in the ROB.
num_committed: 0
  11000: system.cpu.commit: [tid:0] ROB has 0 insts & 192 free entries.
END OF commit.tick()
  11000: system.cpu: Activity: 0
  11000: system.cpu: No activity left!
  11000: system.cpu: Idle!
  77000: system.cpu.icache_port: Fetch unit received timing
  77000: system.cpu.fetch: [tid:0] Waking up from cache miss.
  82000: system.cpu.icache_port: Fetch unit received timing
  82000: system.cpu.fetch: [tid:0] Waking up from cache miss.
  82000: system.cpu: Waking up CPU
  82000: system.cpu.fetch: [tid:0] Activating fetch due to cache completion
  82000: system.cpu.fetch: Activating stage.
  82000: system.cpu: Activity: 1
  82000: system.cpu: 

O3CPU: Ticking main, O3CPU.
stalls[tid].decode: 0
  82000: system.cpu.fetch: Running stage.
  82000: system.cpu.fetch: Attempting to fetch from [tid:0]
this_pc: 0x80000000
this_rp: 0
  82000: system.cpu.fetch: [tid:0] Icache miss is complete.
  82000: system.cpu.fetch: [tid:0] Adding instructions to queue to decode.
 sizeof(machInst): 8
  82000: system.cpu.decoder: Requesting bytes 0x0080006f from address 0x80000000
not compressed probably correct
  82000: system.cpu.decoder: Decoding instruction 0x80006f at address 0x80000000
imm before sext: 0x8
imm after sext: 0x8
imm after sext in dec: 8
  82000: system.cpu.decoder: Decode: Decoded jal instruction: 0x80006f
  82000: global: DynInst: [sn:1] Instruction created. Instcount for system.cpu = 1
  82000: system.cpu.fetch: [tid:0] Instruction PC (0x80000000=>0x80000008).(0=>1) created [sn:1].
enterered Jal::generateDisassembly
love it
no of indices1
why tho
idx: 0
crying
ss.str(): jal [0], 8
  82000: system.cpu.fetch: [tid:0] Instruction is: jal [0], 8
  82000: system.cpu.fetch: [tid:0] Fetch queue entry created (1/32).
npc(): 0x80000008
pc(): 0x80000000
pcstate::advace() instwidth : 8
  82000: system.cpu.fetch: [tid:0] [sn:1] Branch at PC 0x80000000 predicted to be not taken
  82000: system.cpu.fetch: [tid:0] [sn:1] Branch at PC 0x80000000 predicted to go to (0x80000008=>0x80000010).(0=>1)
 sizeof(machInst): 8
  82000: system.cpu.decoder: Requesting bytes 0x00000013 from address 0x80000008
not compressed probably correct
  82000: system.cpu.decoder: Decoding instruction 0x13 at address 0x80000008
  82000: system.cpu.decoder: Decode: Decoded addi instruction: 0x13
  82000: global: DynInst: [sn:2] Instruction created. Instcount for system.cpu = 2
  82000: system.cpu.fetch: [tid:0] Instruction PC (0x80000008=>0x80000010).(0=>1) created [sn:2].
  82000: system.cpu.fetch: [tid:0] Instruction is: addi [1], [1], 0
  82000: system.cpu.fetch: [tid:0] Fetch queue entry created (2/32).
npc(): 0x80000010
pc(): 0x80000008
pcstate::advace() instwidth : 8
 sizeof(machInst): 8
  82000: system.cpu.decoder: Requesting bytes 0x00000013 from address 0x80000010
not compressed probably correct
  82000: system.cpu.decoder: Decoding instruction 0x13 at address 0x80000010
  82000: system.cpu.decoder: Decode: Decoded addi instruction: 0x13
  82000: global: DynInst: [sn:3] Instruction created. Instcount for system.cpu = 3
  82000: system.cpu.fetch: [tid:0] Instruction PC (0x80000010=>0x80000018).(0=>1) created [sn:3].
  82000: system.cpu.fetch: [tid:0] Instruction is: addi [2], [2], 0
  82000: system.cpu.fetch: [tid:0] Fetch queue entry created (3/32).
npc(): 0x80000018
pc(): 0x80000010
pcstate::advace() instwidth : 8
 sizeof(machInst): 8
  82000: system.cpu.decoder: Requesting bytes 0x00008013 from address 0x80000018
not compressed probably correct
  82000: system.cpu.decoder: Decoding instruction 0x8013 at address 0x80000018
  82000: system.cpu.decoder: Decode: Decoded addi instruction: 0x8013
  82000: global: DynInst: [sn:4] Instruction created. Instcount for system.cpu = 4
  82000: system.cpu.fetch: [tid:0] Instruction PC (0x80000018=>0x80000020).(0=>1) created [sn:4].
  82000: system.cpu.fetch: [tid:0] Instruction is: addi [3], [2], 0
  82000: system.cpu.fetch: [tid:0] Fetch queue entry created (4/32).
npc(): 0x80000020
pc(): 0x80000018
pcstate::advace() instwidth : 8
  82000: system.cpu.fetch: [tid:0] Done fetching, reached fetch bandwidth for this cycle.
Record number of instructions fetched: 4
AFTER updateFetchStatus()
AFTER pipelineIcacheAccesses()
ENTER THE LOOP OF ACTIVE THREADS
fetchQueue[tid].size(): 
AFTER ADDING AVAILABLE INSTS TO FETCHQUEUE
available_insts: 4
INSIDE WHILE LOOP
  82000: system.cpu.fetch: [tid:0] [sn:1] Sending instruction to decode from fetch queue. Fetch queue size: 4.
INSIDE WHILE LOOP
  82000: system.cpu.fetch: [tid:0] [sn:2] Sending instruction to decode from fetch queue. Fetch queue size: 3.
INSIDE WHILE LOOP
  82000: system.cpu.fetch: [tid:0] [sn:3] Sending instruction to decode from fetch queue. Fetch queue size: 2.
INSIDE WHILE LOOP
  82000: system.cpu.fetch: [tid:0] [sn:4] Sending instruction to decode from fetch queue. Fetch queue size: 1.
  82000: system.cpu.fetch: Activity this cycle.
  82000: system.cpu: Activity: 2
  82000: system.cpu.decode: Processing [tid:0]
  82000: system.cpu.decode: [tid:0] Not blocked, so attempting to run stage.
  82000: system.cpu.decode: [tid:0] Nothing to do, breaking out early.
Rename::sortInsts() insts_from_decode: 
  82000: system.cpu.rename: Processing [tid:0]
  82000: system.cpu.rename: [tid:0] Free IQ: 64, Free ROB: 192, Free LQ: 32, Free SQ: 32, FreeRM 1(1 224 255 510 31 0)
  82000: system.cpu.rename: [tid:0] 0 instructions not yet in ROB
  82000: system.cpu.rename: calcFreeLQEntries: free lqEntries: 32, loadsInProgress: 0, loads dispatchedToLQ: 0
  82000: system.cpu.rename: [tid:0] Not blocked, so attempting to run stage.
  82000: system.cpu.rename: [tid:0] Nothing to do, breaking out early.
IEW::sortInsts() insts_from_rename: 0
  82000: system.cpu.iew: Issue: Processing [tid:0]
  82000: system.cpu.iew: [tid:0] Not blocked, so attempting to run dispatch.
executeInsts()
Available Instructions: 
insts_to_execute 0
  82000: system.cpu.iq: Attempting to schedule ready instructions from the IQ.
  82000: system.cpu.iq: Not able to schedule any instructions.
  82000: system.cpu.iew: Processing [tid:0]
  82000: system.cpu.iew: [tid:0], Dispatch dispatched 0 instructions.
  82000: system.cpu.iew.lsq.thread0: SQ size: 32, #stores occupied: 0
  82000: system.cpu.iew.lsq.thread0: LQ size: 32, #loads occupied: 0
  82000: system.cpu.iew: IQ has 64 free entries (Can schedule: 0).  LQ has 32 free entries. SQ has 32 free entries.
  82000: system.cpu.commit: Getting instructions from Rename stage.
  82000: system.cpu.commit: Trying to commit instructions in the ROB.
num_committed: 0
  82000: system.cpu.commit: [tid:0] ROB has 0 insts & 192 free entries.
END OF commit.tick()
  82000: system.cpu: Scheduling next tick!
  83000: system.cpu: 

O3CPU: Ticking main, O3CPU.
stalls[tid].decode: 0
  83000: system.cpu.fetch: Running stage.
  83000: system.cpu.fetch: Attempting to fetch from [tid:0]
this_pc: 0x80000020
this_rp: 4
  83000: system.cpu.fetch: [tid:0] Adding instructions to queue to decode.
 sizeof(machInst): 8
  83000: system.cpu.decoder: Requesting bytes 0x00010013 from address 0x80000020
not compressed probably correct
  83000: system.cpu.decoder: Decoding instruction 0x10013 at address 0x80000020
  83000: system.cpu.decoder: Decode: Decoded addi instruction: 0x10013
  83000: global: DynInst: [sn:5] Instruction created. Instcount for system.cpu = 5
  83000: system.cpu.fetch: [tid:0] Instruction PC (0x80000020=>0x80000028).(0=>1) created [sn:5].
  83000: system.cpu.fetch: [tid:0] Instruction is: addi [4], [2], 0
  83000: system.cpu.fetch: [tid:0] Fetch queue entry created (1/32).
npc(): 0x80000028
pc(): 0x80000020
pcstate::advace() instwidth : 8
 sizeof(machInst): 8
  83000: system.cpu.decoder: Requesting bytes 0x00028013 from address 0x80000028
not compressed probably correct
  83000: system.cpu.decoder: Decoding instruction 0x28013 at address 0x80000028
  83000: system.cpu.decoder: Decode: Decoded addi instruction: 0x28013
  83000: global: DynInst: [sn:6] Instruction created. Instcount for system.cpu = 6
  83000: system.cpu.fetch: [tid:0] Instruction PC (0x80000028=>0x80000030).(0=>1) created [sn:6].
  83000: system.cpu.fetch: [tid:0] Instruction is: addi [5], [0], 0
  83000: system.cpu.fetch: [tid:0] Fetch queue entry created (2/32).
npc(): 0x80000030
pc(): 0x80000028
pcstate::advace() instwidth : 8
 sizeof(machInst): 8
  83000: system.cpu.decoder: Requesting bytes 0x00000013 from address 0x80000030
not compressed probably correct
  83000: system.cpu.decoder: Decoding instruction 0x13 at address 0x80000030
  83000: system.cpu.decoder: Decode: Decoded addi instruction: 0x13
  83000: global: DynInst: [sn:7] Instruction created. Instcount for system.cpu = 7
  83000: system.cpu.fetch: [tid:0] Instruction PC (0x80000030=>0x80000038).(0=>1) created [sn:7].
  83000: system.cpu.fetch: [tid:0] Instruction is: addi [6], [6], 0
  83000: system.cpu.fetch: [tid:0] Fetch queue entry created (3/32).
npc(): 0x80000038
pc(): 0x80000030
pcstate::advace() instwidth : 8
 sizeof(machInst): 8
  83000: system.cpu.decoder: Requesting bytes 0x02021013 from address 0x80000038
not compressed probably correct
  83000: system.cpu.decoder: Decoding instruction 0x2021013 at address 0x80000038
  83000: system.cpu.decoder: Decode: Decoded slli instruction: 0x2021013
  83000: global: DynInst: [sn:8] Instruction created. Instcount for system.cpu = 8
  83000: system.cpu.fetch: [tid:0] Instruction PC (0x80000038=>0x80000040).(0=>1) created [sn:8].
  83000: system.cpu.fetch: [tid:0] Instruction is: slli [7], [3], 32
  83000: system.cpu.fetch: [tid:0] Fetch queue entry created (4/32).
npc(): 0x80000040
pc(): 0x80000038
pcstate::advace() instwidth : 8
  83000: system.cpu.fetch: [tid:0] Done fetching, reached fetch bandwidth for this cycle.
Record number of instructions fetched: 4
AFTER updateFetchStatus()
  83000: system.cpu.fetch: [tid:0] Issuing a pipelined I-cache access, starting at PC (0x80000040=>0x80000048).(0=>1).
  83000: system.cpu.fetch: [tid:0] Fetching cache line 0x80000040 for addr 0x80000040
  83000: system.cpu: CPU already running.
  83000: system.cpu.fetch: Fetch: Doing instruction read.
  83000: system.cpu.fetch: [tid:0] Doing Icache access.
  83000: system.cpu.fetch: [tid:0] Activity: Waiting on I-cache response.
  83000: system.cpu.fetch: Deactivating stage.
  83000: system.cpu: Activity: 1
AFTER pipelineIcacheAccesses()
ENTER THE LOOP OF ACTIVE THREADS
fetchQueue[tid].size(): 
AFTER ADDING AVAILABLE INSTS TO FETCHQUEUE
available_insts: 4
INSIDE WHILE LOOP
  83000: system.cpu.fetch: [tid:0] [sn:5] Sending instruction to decode from fetch queue. Fetch queue size: 4.
INSIDE WHILE LOOP
  83000: system.cpu.fetch: [tid:0] [sn:6] Sending instruction to decode from fetch queue. Fetch queue size: 3.
INSIDE WHILE LOOP
  83000: system.cpu.fetch: [tid:0] [sn:7] Sending instruction to decode from fetch queue. Fetch queue size: 2.
INSIDE WHILE LOOP
  83000: system.cpu.fetch: [tid:0] [sn:8] Sending instruction to decode from fetch queue. Fetch queue size: 1.
  83000: system.cpu.fetch: Activity this cycle.
  83000: system.cpu: Activity: 2
  83000: system.cpu.decode: Processing [tid:0]
  83000: system.cpu.decode: [tid:0] Not blocked, so attempting to run stage.
  83000: system.cpu.decode: [tid:0] Sending instruction to rename.
  83000: system.cpu.decode: [tid:0] Processing instruction [sn:1] with PC (0x80000000=>0x80000008).(0=>1)
  83000: system.cpu.decode: [tid:0] Processing instruction [sn:2] with PC (0x80000008=>0x80000010).(0=>1)
  83000: system.cpu.decode: [tid:0] Processing instruction [sn:3] with PC (0x80000010=>0x80000018).(0=>1)
  83000: system.cpu.decode: [tid:0] Processing instruction [sn:4] with PC (0x80000018=>0x80000020).(0=>1)
  83000: system.cpu.decode: Activity this cycle.
Rename::sortInsts() insts_from_decode: 
  83000: system.cpu.rename: Processing [tid:0]
  83000: system.cpu.rename: [tid:0] Free IQ: 64, Free ROB: 192, Free LQ: 32, Free SQ: 32, FreeRM 1(1 224 255 510 31 0)
  83000: system.cpu.rename: [tid:0] 0 instructions not yet in ROB
  83000: system.cpu.rename: calcFreeLQEntries: free lqEntries: 32, loadsInProgress: 0, loads dispatchedToLQ: 0
  83000: system.cpu.rename: [tid:0] Not blocked, so attempting to run stage.
  83000: system.cpu.rename: [tid:0] Nothing to do, breaking out early.
IEW::sortInsts() insts_from_rename: 0
  83000: system.cpu.iew: Issue: Processing [tid:0]
  83000: system.cpu.iew: [tid:0] Not blocked, so attempting to run dispatch.
executeInsts()
Available Instructions: 
insts_to_execute 0
  83000: system.cpu.iq: Attempting to schedule ready instructions from the IQ.
  83000: system.cpu.iq: Not able to schedule any instructions.
  83000: system.cpu.iew: Processing [tid:0]
  83000: system.cpu.iew: [tid:0], Dispatch dispatched 0 instructions.
  83000: system.cpu.iew.lsq.thread0: SQ size: 32, #stores occupied: 0
  83000: system.cpu.iew.lsq.thread0: LQ size: 32, #loads occupied: 0
  83000: system.cpu.iew: IQ has 64 free entries (Can schedule: 0).  LQ has 32 free entries. SQ has 32 free entries.
  83000: system.cpu.commit: Getting instructions from Rename stage.
  83000: system.cpu.commit: Trying to commit instructions in the ROB.
num_committed: 0
  83000: system.cpu.commit: [tid:0] ROB has 0 insts & 192 free entries.
END OF commit.tick()
  83000: system.cpu: Scheduling next tick!
  84000: system.cpu: 

O3CPU: Ticking main, O3CPU.
stalls[tid].decode: 0
  84000: system.cpu.fetch: Running stage.
  84000: system.cpu.fetch: There are no more threads available to fetch from.
  84000: system.cpu.fetch: [tid:0] Fetch is waiting cache response!
Record number of instructions fetched: 0
AFTER updateFetchStatus()
AFTER pipelineIcacheAccesses()
ENTER THE LOOP OF ACTIVE THREADS
fetchQueue[tid].size(): 
AFTER ADDING AVAILABLE INSTS TO FETCHQUEUE
available_insts: 0
  84000: system.cpu.decode: Processing [tid:0]
  84000: system.cpu.decode: [tid:0] Not blocked, so attempting to run stage.
  84000: system.cpu.decode: [tid:0] Sending instruction to rename.
  84000: system.cpu.decode: [tid:0] Processing instruction [sn:5] with PC (0x80000020=>0x80000028).(0=>1)
  84000: system.cpu.decode: [tid:0] Processing instruction [sn:6] with PC (0x80000028=>0x80000030).(0=>1)
  84000: system.cpu.decode: [tid:0] Processing instruction [sn:7] with PC (0x80000030=>0x80000038).(0=>1)
  84000: system.cpu.decode: [tid:0] Processing instruction [sn:8] with PC (0x80000038=>0x80000040).(0=>1)
  84000: system.cpu.decode: Activity this cycle.
  84000: system.cpu: Activity: 3
Rename::sortInsts() insts_from_decode: 
fromDecode->insts: jal
fromDecode->insts: addi
fromDecode->insts: addi
fromDecode->insts: addi
  84000: system.cpu.rename: Processing [tid:0]
  84000: system.cpu.rename: [tid:0] Free IQ: 64, Free ROB: 192, Free LQ: 32, Free SQ: 32, FreeRM 1(1 224 255 510 31 0)
  84000: system.cpu.rename: [tid:0] 0 instructions not yet in ROB
  84000: system.cpu.rename: calcFreeLQEntries: free lqEntries: 32, loadsInProgress: 0, loads dispatchedToLQ: 0
  84000: system.cpu.rename: [tid:0] Not blocked, so attempting to run stage.
  84000: system.cpu.rename: [tid:0] 4 available instructions to send iew.
  84000: system.cpu.rename: [tid:0] 0 insts pipelining from Rename | 0 insts dispatched to IQ last cycle.
  84000: system.cpu.rename: [tid:0] Sending instructions to IEW.
  84000: system.cpu.rename: [tid:0] Processing instruction [sn:1] with PC (0x80000000=>0x80000008).(0=>1).
SimpleRenameMap::rename: prev_reg 0
  84000: global: Renamed reg IntRegClass{0} to physical reg 0 (0) old mapping was 0 (0)
  84000: system.cpu.rename: [tid:0] Renaming arch reg 0 (IntRegClass) to physical reg 0 (0).
  84000: system.cpu.rename: [tid:0] [sn:1] Adding instruction to history buffer (size=1).
  84000: system.cpu.rename: [tid:0] Sending instructions to IEW.
  84000: system.cpu.rename: [tid:0] Processing instruction [sn:2] with PC (0x80000008=>0x80000010).(0=>1).
arch_reg.flatIndex(): 1
  84000: system.cpu.rename: [tid:0] Looking up IntRegClass arch reg 1, got phys reg 1 (IntRegClass)
  84000: system.cpu.rename: [tid:0] Register 1 (flat: 1) (IntRegClass) is ready.
  84000: global: [sn:2] has 1 ready out of 1 sources. RTI 0)
SimpleRenameMap::rename: prev_reg 1
SimpleRenameMap::rename: renamed_reg 1
  84000: global: Renamed reg IntRegClass{1} to physical reg 1 (1) old mapping was 1 (1)
  84000: system.cpu.rename: [tid:0] Renaming arch reg 1 (IntRegClass) to physical reg 1 (1).
  84000: system.cpu.rename: [tid:0] [sn:2] Adding instruction to history buffer (size=2).
  84000: system.cpu.rename: [tid:0] Sending instructions to IEW.
  84000: system.cpu.rename: [tid:0] Processing instruction [sn:3] with PC (0x80000010=>0x80000018).(0=>1).
arch_reg.flatIndex(): 2
  84000: system.cpu.rename: [tid:0] Looking up IntRegClass arch reg 2, got phys reg 2 (IntRegClass)
  84000: system.cpu.rename: [tid:0] Register 2 (flat: 2) (IntRegClass) is ready.
  84000: global: [sn:3] has 1 ready out of 1 sources. RTI 0)
SimpleRenameMap::rename: prev_reg 2
SimpleRenameMap::rename: renamed_reg 2
  84000: global: Renamed reg IntRegClass{2} to physical reg 2 (2) old mapping was 2 (2)
  84000: system.cpu.rename: [tid:0] Renaming arch reg 2 (IntRegClass) to physical reg 2 (2).
  84000: system.cpu.rename: [tid:0] [sn:3] Adding instruction to history buffer (size=3).
  84000: system.cpu.rename: [tid:0] Sending instructions to IEW.
  84000: system.cpu.rename: [tid:0] Processing instruction [sn:4] with PC (0x80000018=>0x80000020).(0=>1).
arch_reg.flatIndex(): 2
  84000: system.cpu.rename: [tid:0] Looking up IntRegClass arch reg 2, got phys reg 2 (IntRegClass)
  84000: system.cpu.rename: [tid:0] Register 2 (flat: 2) (IntRegClass) is ready.
  84000: global: [sn:4] has 1 ready out of 1 sources. RTI 0)
SimpleRenameMap::rename: prev_reg 3
SimpleRenameMap::rename: renamed_reg 3
  84000: global: Renamed reg IntRegClass{3} to physical reg 3 (3) old mapping was 3 (3)
  84000: system.cpu.rename: [tid:0] Renaming arch reg 3 (IntRegClass) to physical reg 3 (3).
  84000: system.cpu.rename: [tid:0] [sn:4] Adding instruction to history buffer (size=4).
  84000: system.cpu.rename: Activity this cycle.
IEW::sortInsts() insts_from_rename: 0
  84000: system.cpu.iew: Issue: Processing [tid:0]
  84000: system.cpu.iew: [tid:0] Not blocked, so attempting to run dispatch.
executeInsts()
Available Instructions: 
insts_to_execute 0
  84000: system.cpu.iq: Attempting to schedule ready instructions from the IQ.
  84000: system.cpu.iq: Not able to schedule any instructions.
  84000: system.cpu.iew: Processing [tid:0]
  84000: system.cpu.iew: [tid:0], Dispatch dispatched 0 instructions.
  84000: system.cpu.iew.lsq.thread0: SQ size: 32, #stores occupied: 0
  84000: system.cpu.iew.lsq.thread0: LQ size: 32, #loads occupied: 0
  84000: system.cpu.iew: IQ has 64 free entries (Can schedule: 0).  LQ has 32 free entries. SQ has 32 free entries.
  84000: system.cpu.commit: Getting instructions from Rename stage.
  84000: system.cpu.commit: Trying to commit instructions in the ROB.
num_committed: 0
  84000: system.cpu.commit: [tid:0] ROB has 0 insts & 192 free entries.
END OF commit.tick()
  84000: system.cpu: Scheduling next tick!
  85000: system.cpu: 

O3CPU: Ticking main, O3CPU.
stalls[tid].decode: 0
  85000: system.cpu.fetch: Running stage.
  85000: system.cpu.fetch: There are no more threads available to fetch from.
  85000: system.cpu.fetch: [tid:0] Fetch is waiting cache response!
Record number of instructions fetched: 0
AFTER updateFetchStatus()
AFTER pipelineIcacheAccesses()
ENTER THE LOOP OF ACTIVE THREADS
fetchQueue[tid].size(): 
AFTER ADDING AVAILABLE INSTS TO FETCHQUEUE
available_insts: 0
  85000: system.cpu.decode: Processing [tid:0]
  85000: system.cpu.decode: [tid:0] Not blocked, so attempting to run stage.
  85000: system.cpu.decode: [tid:0] Nothing to do, breaking out early.
Rename::sortInsts() insts_from_decode: 
fromDecode->insts: addi
fromDecode->insts: addi
fromDecode->insts: addi
fromDecode->insts: slli
  85000: system.cpu.rename: Processing [tid:0]
  85000: system.cpu.rename: [tid:0] Free IQ: 64, Free ROB: 192, Free LQ: 32, Free SQ: 32, FreeRM 1(1 224 255 510 31 0)
  85000: system.cpu.rename: [tid:0] 4 instructions not yet in ROB
  85000: system.cpu.rename: calcFreeLQEntries: free lqEntries: 32, loadsInProgress: 0, loads dispatchedToLQ: 0
  85000: system.cpu.rename: [tid:0] Not blocked, so attempting to run stage.
  85000: system.cpu.rename: [tid:0] 4 available instructions to send iew.
  85000: system.cpu.rename: [tid:0] 4 insts pipelining from Rename | 0 insts dispatched to IQ last cycle.
  85000: system.cpu.rename: [tid:0] Sending instructions to IEW.
  85000: system.cpu.rename: [tid:0] Processing instruction [sn:5] with PC (0x80000020=>0x80000028).(0=>1).
arch_reg.flatIndex(): 2
  85000: system.cpu.rename: [tid:0] Looking up IntRegClass arch reg 2, got phys reg 2 (IntRegClass)
  85000: system.cpu.rename: [tid:0] Register 2 (flat: 2) (IntRegClass) is ready.
  85000: global: [sn:5] has 1 ready out of 1 sources. RTI 0)
SimpleRenameMap::rename: prev_reg 4
SimpleRenameMap::rename: renamed_reg 4
  85000: global: Renamed reg IntRegClass{4} to physical reg 4 (4) old mapping was 4 (4)
  85000: system.cpu.rename: [tid:0] Renaming arch reg 4 (IntRegClass) to physical reg 4 (4).
  85000: system.cpu.rename: [tid:0] [sn:5] Adding instruction to history buffer (size=5).
  85000: system.cpu.rename: [tid:0] Sending instructions to IEW.
  85000: system.cpu.rename: [tid:0] Processing instruction [sn:6] with PC (0x80000028=>0x80000030).(0=>1).
arch_reg.flatIndex(): 0
  85000: system.cpu.rename: [tid:0] Looking up IntRegClass arch reg 0, got phys reg 0 (IntRegClass)
  85000: system.cpu.rename: [tid:0] Register 0 (flat: 0) (IntRegClass) is ready.
  85000: global: [sn:6] has 1 ready out of 1 sources. RTI 0)
SimpleRenameMap::rename: prev_reg 5
SimpleRenameMap::rename: renamed_reg 5
  85000: global: Renamed reg IntRegClass{5} to physical reg 5 (5) old mapping was 5 (5)
  85000: system.cpu.rename: [tid:0] Renaming arch reg 5 (IntRegClass) to physical reg 5 (5).
  85000: system.cpu.rename: [tid:0] [sn:6] Adding instruction to history buffer (size=6).
  85000: system.cpu.rename: [tid:0] Sending instructions to IEW.
  85000: system.cpu.rename: [tid:0] Processing instruction [sn:7] with PC (0x80000030=>0x80000038).(0=>1).
arch_reg.flatIndex(): 6
  85000: system.cpu.rename: [tid:0] Looking up IntRegClass arch reg 6, got phys reg 6 (IntRegClass)
  85000: system.cpu.rename: [tid:0] Register 6 (flat: 6) (IntRegClass) is ready.
  85000: global: [sn:7] has 1 ready out of 1 sources. RTI 0)
SimpleRenameMap::rename: prev_reg 6
SimpleRenameMap::rename: renamed_reg 6
  85000: global: Renamed reg IntRegClass{6} to physical reg 6 (6) old mapping was 6 (6)
  85000: system.cpu.rename: [tid:0] Renaming arch reg 6 (IntRegClass) to physical reg 6 (6).
  85000: system.cpu.rename: [tid:0] [sn:7] Adding instruction to history buffer (size=7).
  85000: system.cpu.rename: [tid:0] Sending instructions to IEW.
  85000: system.cpu.rename: [tid:0] Processing instruction [sn:8] with PC (0x80000038=>0x80000040).(0=>1).
arch_reg.flatIndex(): 3
  85000: system.cpu.rename: [tid:0] Looking up IntRegClass arch reg 3, got phys reg 3 (IntRegClass)
  85000: system.cpu.rename: [tid:0] Register 3 (flat: 3) (IntRegClass) is ready.
  85000: global: [sn:8] has 1 ready out of 1 sources. RTI 0)
SimpleRenameMap::rename: prev_reg 7
SimpleRenameMap::rename: renamed_reg 7
  85000: global: Renamed reg IntRegClass{7} to physical reg 7 (7) old mapping was 7 (7)
  85000: system.cpu.rename: [tid:0] Renaming arch reg 7 (IntRegClass) to physical reg 7 (7).
  85000: system.cpu.rename: [tid:0] [sn:8] Adding instruction to history buffer (size=8).
  85000: system.cpu.rename: Activity this cycle.
  85000: system.cpu: Activity: 4
IEW::sortInsts() insts_from_rename: 0
  85000: system.cpu.iew: Issue: Processing [tid:0]
  85000: system.cpu.iew: [tid:0] Not blocked, so attempting to run dispatch.
executeInsts()
Available Instructions: 
insts_to_execute 0
  85000: system.cpu.iq: Attempting to schedule ready instructions from the IQ.
  85000: system.cpu.iq: Not able to schedule any instructions.
  85000: system.cpu.iew: Processing [tid:0]
  85000: system.cpu.iew: [tid:0], Dispatch dispatched 0 instructions.
  85000: system.cpu.iew.lsq.thread0: SQ size: 32, #stores occupied: 0
  85000: system.cpu.iew.lsq.thread0: LQ size: 32, #loads occupied: 0
  85000: system.cpu.iew: IQ has 64 free entries (Can schedule: 0).  LQ has 32 free entries. SQ has 32 free entries.
  85000: system.cpu.commit: Getting instructions from Rename stage.
  85000: system.cpu.commit: [tid:0] [sn:1] Inserting PC (0x80000000=>0x80000008).(0=>1) into ROB.
  85000: system.cpu.rob: Adding inst PC (0x80000000=>0x80000008).(0=>1) to the ROB.
  85000: system.cpu.rob: [tid:0] Now has 1 instructions.
  85000: system.cpu.commit: [tid:0] [sn:2] Inserting PC (0x80000008=>0x80000010).(0=>1) into ROB.
  85000: system.cpu.rob: Adding inst PC (0x80000008=>0x80000010).(0=>1) to the ROB.
  85000: system.cpu.rob: [tid:0] Now has 2 instructions.
  85000: system.cpu.commit: [tid:0] [sn:3] Inserting PC (0x80000010=>0x80000018).(0=>1) into ROB.
  85000: system.cpu.rob: Adding inst PC (0x80000010=>0x80000018).(0=>1) to the ROB.
  85000: system.cpu.rob: [tid:0] Now has 3 instructions.
  85000: system.cpu.commit: [tid:0] [sn:4] Inserting PC (0x80000018=>0x80000020).(0=>1) into ROB.
  85000: system.cpu.rob: Adding inst PC (0x80000018=>0x80000020).(0=>1) to the ROB.
  85000: system.cpu.rob: [tid:0] Now has 4 instructions.
  85000: system.cpu.commit: Trying to commit instructions in the ROB.
num_committed: 0
  85000: system.cpu.commit: [tid:0] Can't commit, Instruction [sn:1] PC (0x80000000=>0x80000008).(0=>1) is head of ROB and not ready
  85000: system.cpu.commit: [tid:0] ROB has 4 insts & 188 free entries.
  85000: system.cpu.commit: Activity This Cycle.
END OF commit.tick()
  85000: system.cpu: Scheduling next tick!
  86000: system.cpu: 

O3CPU: Ticking main, O3CPU.
stalls[tid].decode: 0
  86000: system.cpu.fetch: Running stage.
  86000: system.cpu.fetch: There are no more threads available to fetch from.
  86000: system.cpu.fetch: [tid:0] Fetch is waiting cache response!
Record number of instructions fetched: 0
AFTER updateFetchStatus()
AFTER pipelineIcacheAccesses()
ENTER THE LOOP OF ACTIVE THREADS
fetchQueue[tid].size(): 
AFTER ADDING AVAILABLE INSTS TO FETCHQUEUE
available_insts: 0
  86000: system.cpu.decode: Processing [tid:0]
  86000: system.cpu.decode: [tid:0] Not blocked, so attempting to run stage.
  86000: system.cpu.decode: [tid:0] Nothing to do, breaking out early.
Rename::sortInsts() insts_from_decode: 
  86000: system.cpu.rename: Processing [tid:0]
  86000: system.cpu.rename: [tid:0] Free IQ: 64, Free ROB: 188, Free LQ: 32, Free SQ: 32, FreeRM 1(1 224 255 510 31 0)
  86000: system.cpu.rename: [tid:0] 8 instructions not yet in ROB
  86000: system.cpu.rename: calcFreeLQEntries: free lqEntries: 32, loadsInProgress: 0, loads dispatchedToLQ: 0
  86000: system.cpu.rename: [tid:0] Not blocked, so attempting to run stage.
  86000: system.cpu.rename: [tid:0] Nothing to do, breaking out early.
IEW::sortInsts() insts_from_rename: 4
fromRename->insts jal
fromRename->insts addi
fromRename->insts addi
fromRename->insts addi
  86000: system.cpu.iew: Issue: Processing [tid:0]
  86000: system.cpu.iew: [tid:0] Not blocked, so attempting to run dispatch.
  86000: system.cpu.iew: [tid:0] Issue: Adding PC (0x80000000=>0x80000008).(0=>1) [sn:1] [tid:0] to IQ.
dispatchInsts() inst = jal
dispatchInsts add_to_iq is true!!! ghjost!!!
  86000: system.cpu.iq: Adding instruction [sn:1] PC (0x80000000=>0x80000008).(0=>1) to the IQ.
dest_reg_idx: 0
dest_reg->flatIndex()0
  86000: system.cpu.iq: Instruction is ready to issue, putting it onto the ready list, PC (0x80000000=>0x80000008).(0=>1) opclass:1 [sn:1].
  86000: system.cpu.iew: [tid:0] Issue: Adding PC (0x80000008=>0x80000010).(0=>1) [sn:2] [tid:0] to IQ.
dispatchInsts() inst = addi
dispatchInsts add_to_iq is true!!! ghjost!!!
  86000: system.cpu.iq: Adding instruction [sn:2] PC (0x80000008=>0x80000010).(0=>1) to the IQ.
src_reg_idx: 0
src_reg->flatIndex()1
dest_reg_idx: 0
dest_reg->flatIndex()1
  86000: system.cpu.iq: Instruction is ready to issue, putting it onto the ready list, PC (0x80000008=>0x80000010).(0=>1) opclass:1 [sn:2].
  86000: system.cpu.iew: [tid:0] Issue: Adding PC (0x80000010=>0x80000018).(0=>1) [sn:3] [tid:0] to IQ.
dispatchInsts() inst = addi
dispatchInsts add_to_iq is true!!! ghjost!!!
  86000: system.cpu.iq: Adding instruction [sn:3] PC (0x80000010=>0x80000018).(0=>1) to the IQ.
src_reg_idx: 0
src_reg->flatIndex()2
dest_reg_idx: 0
dest_reg->flatIndex()2
  86000: system.cpu.iq: Instruction is ready to issue, putting it onto the ready list, PC (0x80000010=>0x80000018).(0=>1) opclass:1 [sn:3].
  86000: system.cpu.iew: [tid:0] Issue: Adding PC (0x80000018=>0x80000020).(0=>1) [sn:4] [tid:0] to IQ.
dispatchInsts() inst = addi
dispatchInsts add_to_iq is true!!! ghjost!!!
  86000: system.cpu.iq: Adding instruction [sn:4] PC (0x80000018=>0x80000020).(0=>1) to the IQ.
src_reg_idx: 0
src_reg->flatIndex()2
dest_reg_idx: 0
dest_reg->flatIndex()3
  86000: system.cpu.iq: Instruction is ready to issue, putting it onto the ready list, PC (0x80000018=>0x80000020).(0=>1) opclass:1 [sn:4].
executeInsts()
Available Instructions: 
insts_to_execute 0
  86000: system.cpu.iq: Attempting to schedule ready instructions from the IQ.
InstructionQueue::scheduleReadyInsts() issuing inst: jal
  86000: system.cpu.iq: Thread 0: Issuing instruction PC (0x80000000=>0x80000008).(0=>1) [sn:1]
InstructionQueue::scheduleReadyInsts() issuing inst: addi
  86000: system.cpu.iq: Thread 0: Issuing instruction PC (0x80000008=>0x80000010).(0=>1) [sn:2]
InstructionQueue::scheduleReadyInsts() issuing inst: addi
  86000: system.cpu.iq: Thread 0: Issuing instruction PC (0x80000010=>0x80000018).(0=>1) [sn:3]
InstructionQueue::scheduleReadyInsts() issuing inst: addi
  86000: system.cpu.iq: Thread 0: Issuing instruction PC (0x80000018=>0x80000020).(0=>1) [sn:4]
  86000: system.cpu: Activity: 5
  86000: system.cpu.iew: Processing [tid:0]
  86000: system.cpu.iew: [tid:0], Dispatch dispatched 4 instructions.
  86000: system.cpu.iew.lsq.thread0: SQ size: 32, #stores occupied: 0
  86000: system.cpu.iew.lsq.thread0: LQ size: 32, #loads occupied: 0
  86000: system.cpu.iew: IQ has 64 free entries (Can schedule: 0).  LQ has 32 free entries. SQ has 32 free entries.
  86000: system.cpu.commit: Getting instructions from Rename stage.
  86000: system.cpu.commit: [tid:0] [sn:5] Inserting PC (0x80000020=>0x80000028).(0=>1) into ROB.
  86000: system.cpu.rob: Adding inst PC (0x80000020=>0x80000028).(0=>1) to the ROB.
  86000: system.cpu.rob: [tid:0] Now has 5 instructions.
  86000: system.cpu.commit: [tid:0] [sn:6] Inserting PC (0x80000028=>0x80000030).(0=>1) into ROB.
  86000: system.cpu.rob: Adding inst PC (0x80000028=>0x80000030).(0=>1) to the ROB.
  86000: system.cpu.rob: [tid:0] Now has 6 instructions.
  86000: system.cpu.commit: [tid:0] [sn:7] Inserting PC (0x80000030=>0x80000038).(0=>1) into ROB.
  86000: system.cpu.rob: Adding inst PC (0x80000030=>0x80000038).(0=>1) to the ROB.
  86000: system.cpu.rob: [tid:0] Now has 7 instructions.
  86000: system.cpu.commit: [tid:0] [sn:8] Inserting PC (0x80000038=>0x80000040).(0=>1) into ROB.
  86000: system.cpu.rob: Adding inst PC (0x80000038=>0x80000040).(0=>1) to the ROB.
  86000: system.cpu.rob: [tid:0] Now has 8 instructions.
  86000: system.cpu.commit: Trying to commit instructions in the ROB.
num_committed: 0
  86000: system.cpu.commit: [tid:0] Can't commit, Instruction [sn:1] PC (0x80000000=>0x80000008).(0=>1) is head of ROB and not ready
  86000: system.cpu.commit: [tid:0] ROB has 8 insts & 184 free entries.
  86000: system.cpu.commit: Activity This Cycle.
END OF commit.tick()
  86000: system.cpu: Scheduling next tick!
  87000: system.cpu: 

O3CPU: Ticking main, O3CPU.
stalls[tid].decode: 0
  87000: system.cpu.fetch: Running stage.
  87000: system.cpu.fetch: There are no more threads available to fetch from.
  87000: system.cpu.fetch: [tid:0] Fetch is waiting cache response!
Record number of instructions fetched: 0
AFTER updateFetchStatus()
AFTER pipelineIcacheAccesses()
ENTER THE LOOP OF ACTIVE THREADS
fetchQueue[tid].size(): 
AFTER ADDING AVAILABLE INSTS TO FETCHQUEUE
available_insts: 0
  87000: system.cpu.decode: Processing [tid:0]
  87000: system.cpu.decode: [tid:0] Not blocked, so attempting to run stage.
  87000: system.cpu.decode: [tid:0] Nothing to do, breaking out early.
Rename::sortInsts() insts_from_decode: 
  87000: system.cpu.rename: Processing [tid:0]
  87000: system.cpu.rename: [tid:0] Free IQ: 64, Free ROB: 184, Free LQ: 32, Free SQ: 32, FreeRM 1(1 224 255 510 31 0)
  87000: system.cpu.rename: [tid:0] 8 instructions not yet in ROB
  87000: system.cpu.rename: calcFreeLQEntries: free lqEntries: 32, loadsInProgress: 0, loads dispatchedToLQ: 0
  87000: system.cpu.rename: [tid:0] Not blocked, so attempting to run stage.
  87000: system.cpu.rename: [tid:0] Nothing to do, breaking out early.
IEW::sortInsts() insts_from_rename: 4
fromRename->insts addi
fromRename->insts addi
fromRename->insts addi
fromRename->insts slli
  87000: system.cpu.iew: Issue: Processing [tid:0]
  87000: system.cpu.iew: [tid:0] Not blocked, so attempting to run dispatch.
  87000: system.cpu.iew: [tid:0] Issue: Adding PC (0x80000020=>0x80000028).(0=>1) [sn:5] [tid:0] to IQ.
dispatchInsts() inst = addi
dispatchInsts add_to_iq is true!!! ghjost!!!
  87000: system.cpu.iq: Adding instruction [sn:5] PC (0x80000020=>0x80000028).(0=>1) to the IQ.
src_reg_idx: 0
src_reg->flatIndex()2
dest_reg_idx: 0
dest_reg->flatIndex()4
  87000: system.cpu.iq: Instruction is ready to issue, putting it onto the ready list, PC (0x80000020=>0x80000028).(0=>1) opclass:1 [sn:5].
  87000: system.cpu.iew: [tid:0] Issue: Adding PC (0x80000028=>0x80000030).(0=>1) [sn:6] [tid:0] to IQ.
dispatchInsts() inst = addi
dispatchInsts add_to_iq is true!!! ghjost!!!
  87000: system.cpu.iq: Adding instruction [sn:6] PC (0x80000028=>0x80000030).(0=>1) to the IQ.
src_reg_idx: 0
src_reg->flatIndex()0
dest_reg_idx: 0
dest_reg->flatIndex()5
  87000: system.cpu.iq: Instruction is ready to issue, putting it onto the ready list, PC (0x80000028=>0x80000030).(0=>1) opclass:1 [sn:6].
  87000: system.cpu.iew: [tid:0] Issue: Adding PC (0x80000030=>0x80000038).(0=>1) [sn:7] [tid:0] to IQ.
dispatchInsts() inst = addi
dispatchInsts add_to_iq is true!!! ghjost!!!
  87000: system.cpu.iq: Adding instruction [sn:7] PC (0x80000030=>0x80000038).(0=>1) to the IQ.
src_reg_idx: 0
src_reg->flatIndex()6
dest_reg_idx: 0
dest_reg->flatIndex()6
  87000: system.cpu.iq: Instruction is ready to issue, putting it onto the ready list, PC (0x80000030=>0x80000038).(0=>1) opclass:1 [sn:7].
  87000: system.cpu.iew: [tid:0] Issue: Adding PC (0x80000038=>0x80000040).(0=>1) [sn:8] [tid:0] to IQ.
dispatchInsts() inst = slli
dispatchInsts add_to_iq is true!!! ghjost!!!
  87000: system.cpu.iq: Adding instruction [sn:8] PC (0x80000038=>0x80000040).(0=>1) to the IQ.
src_reg_idx: 0
src_reg->flatIndex()3
dest_reg_idx: 0
dest_reg->flatIndex()7
  87000: system.cpu.iq: Instruction is ready to issue, putting it onto the ready list, PC (0x80000038=>0x80000040).(0=>1) opclass:1 [sn:8].
executeInsts()
Available Instructions: 
insts_to_execute 4
  87000: system.cpu.iew: Execute: Executing instructions from IQ.
IEW::executeInsts() inst jal
  87000: system.cpu.iew: Execute: Processing PC (0x80000000=>0x80000008).(0=>1), [tid:0] [sn:1].
iew::inst->execute() instruction: jal
  87000: global: RegFile: Setting int register 0 to 0x80000008
  87000: system.cpu.iew: Current wb cycle: 0, width: 4, numInst: 0, wbActual:0
pcstate::advace() instwidth : 8
  87000: system.cpu.iew: Execute: Executing instructions from IQ.
IEW::executeInsts() inst addi
  87000: system.cpu.iew: Execute: Processing PC (0x80000008=>0x80000010).(0=>1), [tid:0] [sn:2].
iew::inst->execute() instruction: addi
  87000: global: RegFile: Setting int register 1 to 0
  87000: system.cpu.iew: Current wb cycle: 0, width: 4, numInst: 1, wbActual:1
pcstate::advace() instwidth : 8
  87000: system.cpu.iew: Execute: Executing instructions from IQ.
IEW::executeInsts() inst addi
  87000: system.cpu.iew: Execute: Processing PC (0x80000010=>0x80000018).(0=>1), [tid:0] [sn:3].
iew::inst->execute() instruction: addi
  87000: global: RegFile: Setting int register 2 to 0
  87000: system.cpu.iew: Current wb cycle: 0, width: 4, numInst: 2, wbActual:2
pcstate::advace() instwidth : 8
  87000: system.cpu.iew: Execute: Executing instructions from IQ.
IEW::executeInsts() inst addi
  87000: system.cpu.iew: Execute: Processing PC (0x80000018=>0x80000020).(0=>1), [tid:0] [sn:4].
iew::inst->execute() instruction: addi
  87000: global: RegFile: Access to int register 2, has data 0
  87000: global: RegFile: Setting int register 3 to 0
  87000: system.cpu.iew: Current wb cycle: 0, width: 4, numInst: 3, wbActual:3
pcstate::advace() instwidth : 8
  87000: system.cpu: Activity: 6
  87000: system.cpu.iew: Sending instructions to commit, [sn:1] PC (0x80000000=>0x80000008).(0=>1).
  87000: system.cpu.iq: Waking dependents of completed instruction.
  87000: system.cpu.iq: Reg 0 [IntRegClass] is part of a fix mapping, skipping
  87000: system.cpu.iew: Setting Destination Register 0 (IntRegClass)
  87000: system.cpu.iew: Sending instructions to commit, [sn:2] PC (0x80000008=>0x80000010).(0=>1).
  87000: system.cpu.iq: Waking dependents of completed instruction.
  87000: system.cpu.iq: Reg 1 [IntRegClass] is part of a fix mapping, skipping
  87000: system.cpu.iew: Sending instructions to commit, [sn:3] PC (0x80000010=>0x80000018).(0=>1).
  87000: system.cpu.iq: Waking dependents of completed instruction.
  87000: system.cpu.iq: Reg 2 [IntRegClass] is part of a fix mapping, skipping
  87000: system.cpu.iew: Sending instructions to commit, [sn:4] PC (0x80000018=>0x80000020).(0=>1).
  87000: system.cpu.iq: Waking dependents of completed instruction.
  87000: system.cpu.iq: Reg 3 [IntRegClass] is part of a fix mapping, skipping
  87000: system.cpu.iq: Attempting to schedule ready instructions from the IQ.
InstructionQueue::scheduleReadyInsts() issuing inst: addi
  87000: system.cpu.iq: Thread 0: Issuing instruction PC (0x80000020=>0x80000028).(0=>1) [sn:5]
InstructionQueue::scheduleReadyInsts() issuing inst: addi
  87000: system.cpu.iq: Thread 0: Issuing instruction PC (0x80000028=>0x80000030).(0=>1) [sn:6]
InstructionQueue::scheduleReadyInsts() issuing inst: addi
  87000: system.cpu.iq: Thread 0: Issuing instruction PC (0x80000030=>0x80000038).(0=>1) [sn:7]
InstructionQueue::scheduleReadyInsts() issuing inst: slli
  87000: system.cpu.iq: Thread 0: Issuing instruction PC (0x80000038=>0x80000040).(0=>1) [sn:8]
  87000: system.cpu.iew: Processing [tid:0]
  87000: system.cpu.iew.lsq.thread0: LQ size: 32, #loads occupied: 0
  87000: system.cpu.iew.lsq.thread0: SQ size: 32, #stores occupied: 0
  87000: system.cpu.iew: [tid:0], Dispatch dispatched 4 instructions.
  87000: system.cpu.iew.lsq.thread0: SQ size: 32, #stores occupied: 0
  87000: system.cpu.iew.lsq.thread0: LQ size: 32, #loads occupied: 0
  87000: system.cpu.iew: IQ has 64 free entries (Can schedule: 0).  LQ has 32 free entries. SQ has 32 free entries.
  87000: system.cpu.iew: Activity this cycle.
  87000: system.cpu.commit: Getting instructions from Rename stage.
  87000: system.cpu.commit: Trying to commit instructions in the ROB.
num_committed: 0
  87000: system.cpu.commit: [tid:0] Can't commit, Instruction [sn:1] PC (0x80000000=>0x80000008).(0=>1) is head of ROB and not ready
  87000: system.cpu.commit: [tid:0] ROB has 8 insts & 184 free entries.
END OF commit.tick()
  87000: system.cpu: Scheduling next tick!
  88000: system.cpu: 

O3CPU: Ticking main, O3CPU.
stalls[tid].decode: 0
  88000: system.cpu.fetch: Running stage.
  88000: system.cpu.fetch: There are no more threads available to fetch from.
  88000: system.cpu.fetch: [tid:0] Fetch is waiting cache response!
Record number of instructions fetched: 0
AFTER updateFetchStatus()
AFTER pipelineIcacheAccesses()
ENTER THE LOOP OF ACTIVE THREADS
fetchQueue[tid].size(): 
AFTER ADDING AVAILABLE INSTS TO FETCHQUEUE
available_insts: 0
  88000: system.cpu.decode: Processing [tid:0]
  88000: system.cpu.decode: [tid:0] Not blocked, so attempting to run stage.
  88000: system.cpu.decode: [tid:0] Nothing to do, breaking out early.
Rename::sortInsts() insts_from_decode: 
  88000: system.cpu.rename: Processing [tid:0]
  88000: system.cpu.rename: [tid:0] Free IQ: 64, Free ROB: 184, Free LQ: 32, Free SQ: 32, FreeRM 1(1 224 255 510 31 0)
  88000: system.cpu.rename: [tid:0] 4 instructions not yet in ROB
  88000: system.cpu.rename: calcFreeLQEntries: free lqEntries: 32, loadsInProgress: 0, loads dispatchedToLQ: 0
  88000: system.cpu.rename: [tid:0] Not blocked, so attempting to run stage.
  88000: system.cpu.rename: [tid:0] Nothing to do, breaking out early.
IEW::sortInsts() insts_from_rename: 0
  88000: system.cpu.iew: Issue: Processing [tid:0]
  88000: system.cpu.iew: [tid:0] Not blocked, so attempting to run dispatch.
executeInsts()
Available Instructions: 
insts_to_execute 4
  88000: system.cpu.iew: Execute: Executing instructions from IQ.
IEW::executeInsts() inst addi
  88000: system.cpu.iew: Execute: Processing PC (0x80000020=>0x80000028).(0=>1), [tid:0] [sn:5].
iew::inst->execute() instruction: addi
  88000: global: RegFile: Access to int register 2, has data 0
  88000: global: RegFile: Setting int register 4 to 0
  88000: system.cpu.iew: Current wb cycle: 0, width: 4, numInst: 0, wbActual:0
pcstate::advace() instwidth : 8
  88000: system.cpu.iew: Execute: Executing instructions from IQ.
IEW::executeInsts() inst addi
  88000: system.cpu.iew: Execute: Processing PC (0x80000028=>0x80000030).(0=>1), [tid:0] [sn:6].
iew::inst->execute() instruction: addi
  88000: global: RegFile: Access to int register 0, has data 0x80000008
  88000: global: RegFile: Setting int register 5 to 0x80000008
  88000: system.cpu.iew: Current wb cycle: 0, width: 4, numInst: 1, wbActual:1
pcstate::advace() instwidth : 8
  88000: system.cpu.iew: Execute: Executing instructions from IQ.
IEW::executeInsts() inst addi
  88000: system.cpu.iew: Execute: Processing PC (0x80000030=>0x80000038).(0=>1), [tid:0] [sn:7].
iew::inst->execute() instruction: addi
  88000: global: RegFile: Setting int register 6 to 0
  88000: system.cpu.iew: Current wb cycle: 0, width: 4, numInst: 2, wbActual:2
pcstate::advace() instwidth : 8
  88000: system.cpu.iew: Execute: Executing instructions from IQ.
IEW::executeInsts() inst slli
  88000: system.cpu.iew: Execute: Processing PC (0x80000038=>0x80000040).(0=>1), [tid:0] [sn:8].
iew::inst->execute() instruction: slli
  88000: global: RegFile: Access to int register 3, has data 0
  88000: global: RegFile: Setting int register 7 to 0
  88000: system.cpu.iew: Current wb cycle: 0, width: 4, numInst: 3, wbActual:3
pcstate::advace() instwidth : 8
  88000: system.cpu: Activity: 7
  88000: system.cpu.iew: Sending instructions to commit, [sn:5] PC (0x80000020=>0x80000028).(0=>1).
  88000: system.cpu.iq: Waking dependents of completed instruction.
  88000: system.cpu.iq: Reg 4 [IntRegClass] is part of a fix mapping, skipping
  88000: system.cpu.iew: Sending instructions to commit, [sn:6] PC (0x80000028=>0x80000030).(0=>1).
  88000: system.cpu.iq: Waking dependents of completed instruction.
  88000: system.cpu.iq: Reg 5 [IntRegClass] is part of a fix mapping, skipping
  88000: system.cpu.iew: Sending instructions to commit, [sn:7] PC (0x80000030=>0x80000038).(0=>1).
  88000: system.cpu.iq: Waking dependents of completed instruction.
  88000: system.cpu.iq: Reg 6 [IntRegClass] is part of a fix mapping, skipping
  88000: system.cpu.iew: Sending instructions to commit, [sn:8] PC (0x80000038=>0x80000040).(0=>1).
  88000: system.cpu.iq: Waking dependents of completed instruction.
  88000: system.cpu.iq: Reg 7 [IntRegClass] is part of a fix mapping, skipping
  88000: system.cpu.iq: Attempting to schedule ready instructions from the IQ.
  88000: system.cpu.iq: Not able to schedule any instructions.
  88000: system.cpu.iew: Processing [tid:0]
  88000: system.cpu.iew.lsq.thread0: LQ size: 32, #loads occupied: 0
  88000: system.cpu.iew.lsq.thread0: SQ size: 32, #stores occupied: 0
  88000: system.cpu.iew: [tid:0], Dispatch dispatched 0 instructions.
  88000: system.cpu.iew.lsq.thread0: SQ size: 32, #stores occupied: 0
  88000: system.cpu.iew.lsq.thread0: LQ size: 32, #loads occupied: 0
  88000: system.cpu.iew: IQ has 64 free entries (Can schedule: 0).  LQ has 32 free entries. SQ has 32 free entries.
  88000: system.cpu.iew: Activity this cycle.
  88000: system.cpu.commit: Getting instructions from Rename stage.
  88000: system.cpu.commit: Trying to commit instructions in the ROB.
num_committed: 0
  88000: system.cpu.commit: [tid:0] Marking PC (0x80000000=>0x80000008).(0=>1), [sn:1] ready within ROB.
  88000: system.cpu.commit: [tid:0] Marking PC (0x80000008=>0x80000010).(0=>1), [sn:2] ready within ROB.
  88000: system.cpu.commit: [tid:0] Marking PC (0x80000010=>0x80000018).(0=>1), [sn:3] ready within ROB.
  88000: system.cpu.commit: [tid:0] Marking PC (0x80000018=>0x80000020).(0=>1), [sn:4] ready within ROB.
  88000: system.cpu.commit: [tid:0] Instruction [sn:1] PC (0x80000000=>0x80000008).(0=>1) is head of ROB and ready to commit
  88000: system.cpu.commit: [tid:0] ROB has 8 insts & 184 free entries.
  88000: system.cpu.commit: Activating stage.
  88000: system.cpu: Activity: 8
END OF commit.tick()
  88000: system.cpu: Scheduling next tick!
  89000: system.cpu: 

O3CPU: Ticking main, O3CPU.
stalls[tid].decode: 0
  89000: system.cpu.fetch: Running stage.
  89000: system.cpu.fetch: There are no more threads available to fetch from.
  89000: system.cpu.fetch: [tid:0] Fetch is waiting cache response!
Record number of instructions fetched: 0
AFTER updateFetchStatus()
AFTER pipelineIcacheAccesses()
ENTER THE LOOP OF ACTIVE THREADS
fetchQueue[tid].size(): 
AFTER ADDING AVAILABLE INSTS TO FETCHQUEUE
available_insts: 0
  89000: system.cpu.decode: Processing [tid:0]
  89000: system.cpu.decode: [tid:0] Not blocked, so attempting to run stage.
  89000: system.cpu.decode: [tid:0] Nothing to do, breaking out early.
Rename::sortInsts() insts_from_decode: 
  89000: system.cpu.rename: Processing [tid:0]
  89000: system.cpu.rename: [tid:0] Free IQ: 64, Free ROB: 184, Free LQ: 32, Free SQ: 32, FreeRM 1(1 224 255 510 31 0)
  89000: system.cpu.rename: [tid:0] 0 instructions not yet in ROB
  89000: system.cpu.rename: calcFreeLQEntries: free lqEntries: 32, loadsInProgress: 0, loads dispatchedToLQ: 0
  89000: system.cpu.rename: [tid:0] Not blocked, so attempting to run stage.
  89000: system.cpu.rename: [tid:0] Nothing to do, breaking out early.
IEW::sortInsts() insts_from_rename: 0
  89000: system.cpu.iew: Issue: Processing [tid:0]
  89000: system.cpu.iew: [tid:0] Not blocked, so attempting to run dispatch.
executeInsts()
Available Instructions: 
insts_to_execute 0
  89000: system.cpu.iq: Attempting to schedule ready instructions from the IQ.
  89000: system.cpu.iq: Not able to schedule any instructions.
  89000: system.cpu.iew: Processing [tid:0]
  89000: system.cpu.iew: [tid:0], Dispatch dispatched 0 instructions.
  89000: system.cpu.iew.lsq.thread0: SQ size: 32, #stores occupied: 0
  89000: system.cpu.iew.lsq.thread0: LQ size: 32, #loads occupied: 0
  89000: system.cpu.iew: IQ has 64 free entries (Can schedule: 0).  LQ has 32 free entries. SQ has 32 free entries.
  89000: system.cpu.commit: Getting instructions from Rename stage.
  89000: system.cpu.commit: Trying to commit instructions in the ROB.
num_committed: 0
  89000: system.cpu.commit: Trying to commit head instruction, [tid:0] [sn:1]
  89000: system.cpu.commit: [tid:0] [sn:1] Committing instruction with PC (0x80000000=>0x80000008).(0=>1)
  89000: system.cpu.rob: [tid:0] Retiring head instruction, instruction PC (0x80000000=>0x80000008).(0=>1), [sn:1]
  89000: system.cpu: Removing committed instruction [tid:0] PC (0x80000000=>0x80000008).(0=>1) [sn:1]
head_inst->staticInst->getName()jal
pcstate::advace() instwidth : 8
[...]
 306000: system.cpu.commit: Getting instructions from Rename stage.
 306000: system.cpu.commit: Trying to commit instructions in the ROB.
num_committed: 0
 306000: system.cpu.commit: [tid:0] ROB has 0 insts & 192 free entries.
END OF commit.tick()
 306000: global: DynInst: [sn:29] Instruction destroyed. Instcount for system.cpu = 7
 306000: global: DynInst: [sn:28] Instruction destroyed. Instcount for system.cpu = 6
 306000: global: DynInst: [sn:27] Instruction destroyed. Instcount for system.cpu = 5
 306000: global: DynInst: [sn:26] Instruction destroyed. Instcount for system.cpu = 4
 306000: system.cpu: Activity: 9
 306000: system.cpu: Scheduling next tick!
 307000: system.cpu: 

O3CPU: Ticking main, O3CPU.
 307000: system.cpu.fetch: [tid:0] Squashing instructions due to squash from commit.
 307000: system.cpu.fetch: [tid:0] Squash from commit.
 307000: system.cpu.fetch: [tid:0] Squashing, setting PC to: (0=>0x8).(0=>1).
new_pc: 0
new_rp: 28
 307000: system.cpu.fetch: [tid:0] Squashing outstanding Icache miss.
 307000: system.cpu: Thread 0: Deleting instructions from instruction list.
stalls[tid].decode: 0
 307000: system.cpu.fetch: Running stage.
 307000: system.cpu.fetch: There are no more threads available to fetch from.
 307000: system.cpu.fetch: [tid:0] Fetch is squashing!
Record number of instructions fetched: 0
 307000: system.cpu.fetch: [tid:0] Activating stage.
 307000: system.cpu: Activity: 10
AFTER updateFetchStatus()
AFTER pipelineIcacheAccesses()
ENTER THE LOOP OF ACTIVE THREADS
fetchQueue[tid].size(): 
AFTER ADDING AVAILABLE INSTS TO FETCHQUEUE
available_insts: 0
 307000: system.cpu.decode: Processing [tid:0]
 307000: system.cpu.decode: [tid:0] Not blocked, so attempting to run stage.
 307000: system.cpu.decode: [tid:0] Nothing to do, breaking out early.
Rename::sortInsts() insts_from_decode: 
 307000: system.cpu.rename: Processing [tid:0]
 307000: system.cpu.rename: [tid:0] Free IQ: 64, Free ROB: 192, Free LQ: 32, Free SQ: 32, FreeRM 1(1 224 255 510 31 0)
 307000: system.cpu.rename: [tid:0] 0 instructions not yet in ROB
 307000: system.cpu.rename: calcFreeLQEntries: free lqEntries: 32, loadsInProgress: 0, loads dispatchedToLQ: 0
 307000: system.cpu.rename: [tid:0] Not blocked, so attempting to run stage.
 307000: system.cpu.rename: [tid:0] Nothing to do, breaking out early.
IEW::sortInsts() insts_from_rename: 0
 307000: system.cpu.iew: Issue: Processing [tid:0]
 307000: system.cpu.iew: [tid:0] Not blocked, so attempting to run dispatch.
executeInsts()
Available Instructions: 
insts_to_execute 0
 307000: system.cpu.iq: Attempting to schedule ready instructions from the IQ.
 307000: system.cpu.iq: Not able to schedule any instructions.
 307000: system.cpu.iew: Processing [tid:0]
 307000: system.cpu.iew: [tid:0], Dispatch dispatched 0 instructions.
 307000: system.cpu.iew.lsq.thread0: SQ size: 32, #stores occupied: 0
 307000: system.cpu.iew.lsq.thread0: LQ size: 32, #loads occupied: 0
 307000: system.cpu.iew: IQ has 64 free entries (Can schedule: 0).  LQ has 32 free entries. SQ has 32 free entries.
 307000: system.cpu.commit: Getting instructions from Rename stage.
 307000: system.cpu.commit: Trying to commit instructions in the ROB.
num_committed: 0
 307000: system.cpu.commit: [tid:0] ROB has 0 insts & 192 free entries.
END OF commit.tick()
 307000: global: DynInst: [sn:32] Instruction destroyed. Instcount for system.cpu = 3
 307000: global: DynInst: [sn:31] Instruction destroyed. Instcount for system.cpu = 2
 307000: global: DynInst: [sn:30] Instruction destroyed. Instcount for system.cpu = 1
 307000: system.cpu: Activity: 9
 307000: system.cpu: Scheduling next tick!
 308000: system.cpu: 

O3CPU: Ticking main, O3CPU.
 308000: system.cpu.fetch: [tid:0] Done squashing, switching to running.
stalls[tid].decode: 0
 308000: system.cpu.fetch: Running stage.
 308000: system.cpu.fetch: Attempting to fetch from [tid:0]
this_pc: 0
this_rp: 28
 308000: system.cpu.fetch: [tid:0] Attempting to translate and read instruction, starting at PC (0=>0x8).(0=>1).
 308000: system.cpu.fetch: [tid:0] Fetching cache line 0 for addr 0
 308000: system.cpu: CPU already running.
 308000: system.cpu.fetch: [tid:0] Got back req with addr 0 but expected 0
 308000: system.cpu.fetch: [tid:0] Translation faulted, building noop.
 308000: global: DynInst: [sn:34] Instruction created. Instcount for system.cpu = 2
 308000: system.cpu.fetch: [tid:0] Instruction PC (0=>0x8).(0=>1) created [sn:34].
 308000: system.cpu.fetch: [tid:0] Instruction is: gem5 nop
 308000: system.cpu.fetch: [tid:0] Fetch queue entry created (1/32).
 308000: system.cpu.fetch: Activity this cycle.
 308000: system.cpu: Activity: 10
 308000: system.cpu.fetch: [tid:0] Blocked, need to handle the trap.
 308000: system.cpu.fetch: [tid:0] fault (Generic page table fault) detected @ PC (0=>0x8).(0=>1).
 308000: system.cpu.fetch: Deactivating stage.
 308000: system.cpu: Activity: 9
Record number of instructions fetched: 0
AFTER updateFetchStatus()
AFTER pipelineIcacheAccesses()
ENTER THE LOOP OF ACTIVE THREADS
fetchQueue[tid].size(): 
AFTER ADDING AVAILABLE INSTS TO FETCHQUEUE
available_insts: 1
INSIDE WHILE LOOP
 308000: system.cpu.fetch: [tid:0] [sn:34] Sending instruction to decode from fetch queue. Fetch queue size: 1.
 308000: system.cpu.fetch: Activity this cycle.
 308000: system.cpu.decode: Processing [tid:0]
 308000: system.cpu.decode: [tid:0] Not blocked, so attempting to run stage.
 308000: system.cpu.decode: [tid:0] Nothing to do, breaking out early.
Rename::sortInsts() insts_from_decode: 
 308000: system.cpu.rename: Processing [tid:0]
 308000: system.cpu.rename: [tid:0] Free IQ: 64, Free ROB: 192, Free LQ: 32, Free SQ: 32, FreeRM 1(1 224 255 510 31 0)
 308000: system.cpu.rename: [tid:0] 0 instructions not yet in ROB
 308000: system.cpu.rename: calcFreeLQEntries: free lqEntries: 32, loadsInProgress: 0, loads dispatchedToLQ: 0
 308000: system.cpu.rename: [tid:0] Not blocked, so attempting to run stage.
 308000: system.cpu.rename: [tid:0] Nothing to do, breaking out early.
IEW::sortInsts() insts_from_rename: 0
 308000: system.cpu.iew: Issue: Processing [tid:0]
 308000: system.cpu.iew: [tid:0] Not blocked, so attempting to run dispatch.
executeInsts()
Available Instructions: 
insts_to_execute 0
 308000: system.cpu.iq: Attempting to schedule ready instructions from the IQ.
 308000: system.cpu.iq: Not able to schedule any instructions.
 308000: system.cpu.iew: Processing [tid:0]
 308000: system.cpu.iew: [tid:0], Dispatch dispatched 0 instructions.
 308000: system.cpu.iew.lsq.thread0: SQ size: 32, #stores occupied: 0
 308000: system.cpu.iew.lsq.thread0: LQ size: 32, #loads occupied: 0
 308000: system.cpu.iew: IQ has 64 free entries (Can schedule: 0).  LQ has 32 free entries. SQ has 32 free entries.
 308000: system.cpu.commit: Getting instructions from Rename stage.
 308000: system.cpu.commit: Trying to commit instructions in the ROB.
num_committed: 0
 308000: system.cpu.commit: [tid:0] ROB has 0 insts & 192 free entries.
END OF commit.tick()
 308000: global: DynInst: [sn:33] Instruction destroyed. Instcount for system.cpu = 1
 308000: system.cpu: Activity: 8
 308000: system.cpu: Scheduling next tick!
 309000: system.cpu: 

O3CPU: Ticking main, O3CPU.
stalls[tid].decode: 0
 309000: system.cpu.fetch: Running stage.
 309000: system.cpu.fetch: There are no more threads available to fetch from.
 309000: system.cpu.fetch: [tid:0] Fetch is waiting for a pending trap!
Record number of instructions fetched: 0
AFTER updateFetchStatus()
AFTER pipelineIcacheAccesses()
ENTER THE LOOP OF ACTIVE THREADS
fetchQueue[tid].size(): 
AFTER ADDING AVAILABLE INSTS TO FETCHQUEUE
available_insts: 0
 309000: system.cpu.decode: Processing [tid:0]
 309000: system.cpu.decode: [tid:0] Not blocked, so attempting to run stage.
 309000: system.cpu.decode: [tid:0] Sending instruction to rename.
 309000: system.cpu.decode: [tid:0] Processing instruction [sn:34] with PC (0=>0x8).(0=>1)
 309000: system.cpu.decode: Activity this cycle.
 309000: system.cpu: Activity: 9
Rename::sortInsts() insts_from_decode: 
 309000: system.cpu.rename: Processing [tid:0]
 309000: system.cpu.rename: [tid:0] Free IQ: 64, Free ROB: 192, Free LQ: 32, Free SQ: 32, FreeRM 1(1 224 255 510 31 0)
 309000: system.cpu.rename: [tid:0] 0 instructions not yet in ROB
 309000: system.cpu.rename: calcFreeLQEntries: free lqEntries: 32, loadsInProgress: 0, loads dispatchedToLQ: 0
 309000: system.cpu.rename: [tid:0] Not blocked, so attempting to run stage.
 309000: system.cpu.rename: [tid:0] Nothing to do, breaking out early.
IEW::sortInsts() insts_from_rename: 0
 309000: system.cpu.iew: Issue: Processing [tid:0]
 309000: system.cpu.iew: [tid:0] Not blocked, so attempting to run dispatch.
executeInsts()
Available Instructions: 
insts_to_execute 0
 309000: system.cpu.iq: Attempting to schedule ready instructions from the IQ.
 309000: system.cpu.iq: Not able to schedule any instructions.
 309000: system.cpu.iew: Processing [tid:0]
 309000: system.cpu.iew: [tid:0], Dispatch dispatched 0 instructions.
 309000: system.cpu.iew.lsq.thread0: SQ size: 32, #stores occupied: 0
 309000: system.cpu.iew.lsq.thread0: LQ size: 32, #loads occupied: 0
 309000: system.cpu.iew: IQ has 64 free entries (Can schedule: 0).  LQ has 32 free entries. SQ has 32 free entries.
 309000: system.cpu.commit: Getting instructions from Rename stage.
 309000: system.cpu.commit: Trying to commit instructions in the ROB.
num_committed: 0
 309000: system.cpu.commit: [tid:0] ROB has 0 insts & 192 free entries.
END OF commit.tick()
 309000: system.cpu: Activity: 8
 309000: system.cpu: Scheduling next tick!
 310000: system.cpu: 

O3CPU: Ticking main, O3CPU.
stalls[tid].decode: 0
 310000: system.cpu.fetch: Running stage.
 310000: system.cpu.fetch: There are no more threads available to fetch from.
 310000: system.cpu.fetch: [tid:0] Fetch is waiting for a pending trap!
Record number of instructions fetched: 0
AFTER updateFetchStatus()
AFTER pipelineIcacheAccesses()
ENTER THE LOOP OF ACTIVE THREADS
fetchQueue[tid].size(): 
AFTER ADDING AVAILABLE INSTS TO FETCHQUEUE
available_insts: 0
 310000: system.cpu.decode: Processing [tid:0]
 310000: system.cpu.decode: [tid:0] Not blocked, so attempting to run stage.
 310000: system.cpu.decode: [tid:0] Nothing to do, breaking out early.
Rename::sortInsts() insts_from_decode: 
fromDecode->insts: gem5 nop
 310000: system.cpu.rename: Processing [tid:0]
 310000: system.cpu.rename: [tid:0] Free IQ: 64, Free ROB: 192, Free LQ: 32, Free SQ: 32, FreeRM 1(1 224 255 510 31 0)
 310000: system.cpu.rename: [tid:0] 0 instructions not yet in ROB
 310000: system.cpu.rename: calcFreeLQEntries: free lqEntries: 32, loadsInProgress: 0, loads dispatchedToLQ: 0
 310000: system.cpu.rename: [tid:0] Not blocked, so attempting to run stage.
 310000: system.cpu.rename: [tid:0] 1 available instructions to send iew.
 310000: system.cpu.rename: [tid:0] 0 insts pipelining from Rename | 0 insts dispatched to IQ last cycle.
 310000: system.cpu.rename: [tid:0] Sending instructions to IEW.
 310000: system.cpu.rename: [tid:0] Processing instruction [sn:34] with PC (0=>0x8).(0=>1).
 310000: system.cpu.rename: Activity this cycle.
 310000: system.cpu: Activity: 9
IEW::sortInsts() insts_from_rename: 0
 310000: system.cpu.iew: Issue: Processing [tid:0]
 310000: system.cpu.iew: [tid:0] Not blocked, so attempting to run dispatch.
executeInsts()
Available Instructions: 
insts_to_execute 0
 310000: system.cpu.iq: Attempting to schedule ready instructions from the IQ.
 310000: system.cpu.iq: Not able to schedule any instructions.
 310000: system.cpu.iew: Processing [tid:0]
 310000: system.cpu.iew: [tid:0], Dispatch dispatched 0 instructions.
 310000: system.cpu.iew.lsq.thread0: SQ size: 32, #stores occupied: 0
 310000: system.cpu.iew.lsq.thread0: LQ size: 32, #loads occupied: 0
 310000: system.cpu.iew: IQ has 64 free entries (Can schedule: 0).  LQ has 32 free entries. SQ has 32 free entries.
 310000: system.cpu.commit: Getting instructions from Rename stage.
 310000: system.cpu.commit: Trying to commit instructions in the ROB.
num_committed: 0
 310000: system.cpu.commit: [tid:0] ROB has 0 insts & 192 free entries.
END OF commit.tick()
 310000: system.cpu: Activity: 8
 310000: system.cpu: Scheduling next tick!
 311000: system.cpu: 

O3CPU: Ticking main, O3CPU.
stalls[tid].decode: 0
 311000: system.cpu.fetch: Running stage.
 311000: system.cpu.fetch: There are no more threads available to fetch from.
 311000: system.cpu.fetch: [tid:0] Fetch is waiting for a pending trap!
Record number of instructions fetched: 0
AFTER updateFetchStatus()
AFTER pipelineIcacheAccesses()
ENTER THE LOOP OF ACTIVE THREADS
fetchQueue[tid].size(): 
AFTER ADDING AVAILABLE INSTS TO FETCHQUEUE
available_insts: 0
 311000: system.cpu.decode: Processing [tid:0]
 311000: system.cpu.decode: [tid:0] Not blocked, so attempting to run stage.
 311000: system.cpu.decode: [tid:0] Nothing to do, breaking out early.
Rename::sortInsts() insts_from_decode: 
 311000: system.cpu.rename: Processing [tid:0]
 311000: system.cpu.rename: [tid:0] Free IQ: 64, Free ROB: 192, Free LQ: 32, Free SQ: 32, FreeRM 1(1 224 255 510 31 0)
 311000: system.cpu.rename: [tid:0] 1 instructions not yet in ROB
 311000: system.cpu.rename: calcFreeLQEntries: free lqEntries: 32, loadsInProgress: 0, loads dispatchedToLQ: 0
 311000: system.cpu.rename: [tid:0] Not blocked, so attempting to run stage.
 311000: system.cpu.rename: [tid:0] Nothing to do, breaking out early.
IEW::sortInsts() insts_from_rename: 0
 311000: system.cpu.iew: Issue: Processing [tid:0]
 311000: system.cpu.iew: [tid:0] Not blocked, so attempting to run dispatch.
executeInsts()
Available Instructions: 
insts_to_execute 0
 311000: system.cpu.iq: Attempting to schedule ready instructions from the IQ.
 311000: system.cpu.iq: Not able to schedule any instructions.
 311000: system.cpu.iew: Processing [tid:0]
 311000: system.cpu.iew: [tid:0], Dispatch dispatched 0 instructions.
 311000: system.cpu.iew.lsq.thread0: SQ size: 32, #stores occupied: 0
 311000: system.cpu.iew.lsq.thread0: LQ size: 32, #loads occupied: 0
 311000: system.cpu.iew: IQ has 64 free entries (Can schedule: 0).  LQ has 32 free entries. SQ has 32 free entries.
 311000: system.cpu.commit: Getting instructions from Rename stage.
 311000: system.cpu.commit: [tid:0] [sn:34] Inserting PC (0=>0x8).(0=>1) into ROB.
 311000: system.cpu.rob: Adding inst PC (0=>0x8).(0=>1) to the ROB.
 311000: system.cpu.rob: [tid:0] Now has 1 instructions.
 311000: system.cpu.commit: Trying to commit instructions in the ROB.
num_committed: 0
 311000: system.cpu.commit: [tid:0] Can't commit, Instruction [sn:34] PC (0=>0x8).(0=>1) is head of ROB and not ready
 311000: system.cpu.commit: [tid:0] ROB has 1 insts & 191 free entries.
 311000: system.cpu.commit: Activity This Cycle.
 311000: system.cpu: Activity: 9
END OF commit.tick()
 311000: system.cpu: Activity: 8
 311000: system.cpu: Scheduling next tick!
 312000: system.cpu: 

O3CPU: Ticking main, O3CPU.
stalls[tid].decode: 0
 312000: system.cpu.fetch: Running stage.
 312000: system.cpu.fetch: There are no more threads available to fetch from.
 312000: system.cpu.fetch: [tid:0] Fetch is waiting for a pending trap!
Record number of instructions fetched: 0
AFTER updateFetchStatus()
AFTER pipelineIcacheAccesses()
ENTER THE LOOP OF ACTIVE THREADS
fetchQueue[tid].size(): 
AFTER ADDING AVAILABLE INSTS TO FETCHQUEUE
available_insts: 0
 312000: system.cpu.decode: Processing [tid:0]
 312000: system.cpu.decode: [tid:0] Not blocked, so attempting to run stage.
 312000: system.cpu.decode: [tid:0] Nothing to do, breaking out early.
Rename::sortInsts() insts_from_decode: 
 312000: system.cpu.rename: Processing [tid:0]
 312000: system.cpu.rename: [tid:0] Free IQ: 64, Free ROB: 191, Free LQ: 32, Free SQ: 32, FreeRM 1(1 224 255 510 31 0)
 312000: system.cpu.rename: [tid:0] 1 instructions not yet in ROB
 312000: system.cpu.rename: calcFreeLQEntries: free lqEntries: 32, loadsInProgress: 0, loads dispatchedToLQ: 0
 312000: system.cpu.rename: [tid:0] Not blocked, so attempting to run stage.
 312000: system.cpu.rename: [tid:0] Nothing to do, breaking out early.
IEW::sortInsts() insts_from_rename: 1
fromRename->insts gem5 nop
 312000: system.cpu.iew: Issue: Processing [tid:0]
 312000: system.cpu.iew: [tid:0] Not blocked, so attempting to run dispatch.
 312000: system.cpu.iew: [tid:0] Issue: Adding PC (0=>0x8).(0=>1) [sn:34] [tid:0] to IQ.
dispatchInsts() inst = gem5 nop
dispatchInsts add_to_iq is true!!! ghjost!!!
 312000: system.cpu.iq: Adding instruction [sn:34] PC (0=>0x8).(0=>1) to the IQ.
 312000: system.cpu.iq: Instruction is ready to issue, putting it onto the ready list, PC (0=>0x8).(0=>1) opclass:0 [sn:34].
executeInsts()
Available Instructions: 
insts_to_execute 0
 312000: system.cpu.iq: Attempting to schedule ready instructions from the IQ.
InstructionQueue::scheduleReadyInsts() issuing inst: gem5 nop
 312000: system.cpu.iq: Thread 0: Issuing instruction PC (0=>0x8).(0=>1) [sn:34]
 312000: system.cpu: Activity: 9
 312000: system.cpu.iew: Processing [tid:0]
 312000: system.cpu.iew: [tid:0], Dispatch dispatched 1 instructions.
 312000: system.cpu.iew.lsq.thread0: SQ size: 32, #stores occupied: 0
 312000: system.cpu.iew.lsq.thread0: LQ size: 32, #loads occupied: 0
 312000: system.cpu.iew: IQ has 64 free entries (Can schedule: 0).  LQ has 32 free entries. SQ has 32 free entries.
 312000: system.cpu.commit: Getting instructions from Rename stage.
 312000: system.cpu.commit: Trying to commit instructions in the ROB.
num_committed: 0
 312000: system.cpu.commit: [tid:0] Can't commit, Instruction [sn:34] PC (0=>0x8).(0=>1) is head of ROB and not ready
 312000: system.cpu.commit: [tid:0] ROB has 1 insts & 191 free entries.
END OF commit.tick()
 312000: system.cpu: Activity: 8
 312000: system.cpu: Scheduling next tick!
 313000: system.cpu: 

O3CPU: Ticking main, O3CPU.
stalls[tid].decode: 0
 313000: system.cpu.fetch: Running stage.
 313000: system.cpu.fetch: There are no more threads available to fetch from.
 313000: system.cpu.fetch: [tid:0] Fetch is waiting for a pending trap!
Record number of instructions fetched: 0
AFTER updateFetchStatus()
AFTER pipelineIcacheAccesses()
ENTER THE LOOP OF ACTIVE THREADS
fetchQueue[tid].size(): 
AFTER ADDING AVAILABLE INSTS TO FETCHQUEUE
available_insts: 0
 313000: system.cpu.decode: Processing [tid:0]
 313000: system.cpu.decode: [tid:0] Not blocked, so attempting to run stage.
 313000: system.cpu.decode: [tid:0] Nothing to do, breaking out early.
Rename::sortInsts() insts_from_decode: 
 313000: system.cpu.rename: Processing [tid:0]
 313000: system.cpu.rename: [tid:0] Free IQ: 64, Free ROB: 191, Free LQ: 32, Free SQ: 32, FreeRM 1(1 224 255 510 31 0)
 313000: system.cpu.rename: [tid:0] 1 instructions not yet in ROB
 313000: system.cpu.rename: calcFreeLQEntries: free lqEntries: 32, loadsInProgress: 0, loads dispatchedToLQ: 0
 313000: system.cpu.rename: [tid:0] Not blocked, so attempting to run stage.
 313000: system.cpu.rename: [tid:0] Nothing to do, breaking out early.
IEW::sortInsts() insts_from_rename: 0
 313000: system.cpu.iew: Issue: Processing [tid:0]
 313000: system.cpu.iew: [tid:0] Not blocked, so attempting to run dispatch.
executeInsts()
Available Instructions: 
insts_to_execute 1
 313000: system.cpu.iew: Execute: Executing instructions from IQ.
IEW::executeInsts() inst gem5 nop
 313000: system.cpu.iew: Execute: Processing PC (0=>0x8).(0=>1), [tid:0] [sn:34].
 313000: system.cpu.iew: Current wb cycle: 0, width: 4, numInst: 0, wbActual:0
pcstate::advace() instwidth : 8
 313000: system.cpu.iew: [tid:0] [sn:34] Execute: Branch mispredict detected.
 313000: system.cpu.iew: [tid:0] [sn:34] Predicted target was PC: (0=>0x8).(0=>1)
 313000: system.cpu.iew: [tid:0] [sn:34] Execute: Redirecting fetch to PC: (0=>0x8).(0=>1)
 313000: system.cpu.iew: [tid:0] [sn:34] Squashing from a specific instruction, PC: (0=>0x8).(0=>1) 
npc(): 0x8
pc(): 0
pcstate::advace() instwidth : 8
